15
H7 C4 N1 O3
N 0.410263 -1.348119 -0.263683
C 0.145964 -0.389739 0.372986
C -0.053359 -1.588997 -1.612900
O -0.006279 0.550259 2.659872
C 0.036982 1.652882 -1.109934
O -0.412842 0.795213 0.022325
C 0.081638 -0.638441 1.912764
O -0.632712 -0.881325 -2.425203
H 0.263350 1.100152 -2.023102
H -0.677749 2.410011 -1.128382
H -0.421462 1.219095 2.178974
H -0.855370 -1.231167 2.026201
H 0.226024 -2.636698 -1.971469
H 0.983560 2.153836 -0.817253
H 0.912012 -1.166972 2.178785