16
H8 C4 N4
C -0.096367 -0.347668 -0.338731
N 0.577017 0.506554 0.533686
C 1.971334 0.560845 0.968124
C -0.371962 1.397916 0.924402
N -1.620633 1.166972 0.386154
N 0.486102 -1.443411 -0.970319
C -1.419738 0.042703 -0.362914
N -2.410673 -0.520972 -1.208257
H 2.274297 -0.487646 1.058792
H -0.194875 2.227796 1.595123
H 2.555118 1.067641 0.175023
H -3.309548 -0.267184 -0.799219
H 0.673046 -2.309492 -0.574629
H -2.285665 -1.521423 -1.401493
H 2.073545 1.155465 1.808431
H 1.098982 -1.228091 -1.794147