22
H13 C8 N1
C 0.437929 -0.833619 0.813729
C -0.756343 1.432787 0.299129
C 0.417732 0.718396 0.930545
C 1.021169 -0.041388 -0.401223
C -0.407318 0.870200 -0.960023
C -1.965447 -1.277321 1.134804
N -0.765655 -1.381034 0.269731
C 2.356431 -0.153903 -0.994028
C -0.306328 -0.594917 -0.940317
H 0.527097 2.280870 -1.255257
H -1.983830 -2.181691 1.846842
H -2.176752 -0.437854 1.738178
H -1.755291 1.170971 0.681628
H 2.563903 -1.145836 -1.210096
H 0.961739 -1.389273 1.608201
H 2.432523 0.477024 -1.927846
H 1.056191 1.156017 1.616808
H -0.409049 -1.194959 -1.876478
H -0.645738 2.516160 0.411003
H -2.903424 -1.513962 0.420301
H -0.833191 1.282434 -1.943656
H 3.133657 0.240876 -0.261991