14
H5 C5 N1 O3
C 0.247810 0.770420 -1.833434
C 0.816744 0.142565 -0.638544
C -1.997217 -0.357187 1.737465
O -1.185412 0.011013 0.564153
C 2.096605 -0.167374 -0.891208
N 1.248953 0.875787 -2.663018
C 0.091910 -0.267401 0.605389
O 0.640513 -0.751986 1.508552
O 2.375157 0.313828 -2.120373
H -1.576730 0.244180 2.587229
H 2.894582 -0.628613 -0.362955
H -1.950832 -1.369186 1.962533
H -0.712407 1.146834 -2.033348
H -2.989706 0.037135 1.577573