20
H11 C7 N1 O1
C 1.699644 -0.076954 1.708236
C -0.008617 -0.120971 -0.071997
C -1.977324 -0.223848 -1.411745
O 0.357394 0.275391 2.253327
C 1.268016 -0.867343 0.419131
C -0.620836 0.228994 -1.946990
N -0.737815 -0.977604 -1.115947
C -0.623001 0.096984 1.370306
C 0.176551 1.078197 -0.960257
H 2.162834 -0.628896 2.447678
H -1.337902 0.989012 1.349572
H -0.261755 1.969180 -0.633394
H 2.100147 -0.864967 -0.260990
H 2.235605 0.767929 1.487609
H -2.667101 -0.719274 -2.039939
H -1.242444 -0.737696 1.643563
H -2.397896 0.330858 -0.573059
H -0.365250 0.180242 -3.056709
H 1.025196 -1.910380 0.695167
H 1.214553 1.211145 -1.303567