16
H7 C6 N2 F1
C -0.048022 -0.089390 0.408874
C 1.258029 1.468750 -1.338868
C 0.487481 2.162149 -0.362996
C 1.297730 0.186298 -1.424339
N 0.708660 -0.679512 -0.596250
C -1.180019 -2.239750 0.853247
C -0.178874 1.291469 0.546261
F 1.862366 2.268172 -2.347179
N -0.601425 -0.968595 1.363980
H -0.372957 -2.755529 0.321990
H -0.743429 1.731668 1.330679
H -1.978728 -2.031539 0.141267
H 0.356135 3.228944 -0.297171
H -1.528773 -2.805371 1.679726
H 1.904979 -0.297375 -2.256070
H -1.243164 -0.470393 1.976858