16
H7 C6 N3
C 0.293496 0.996570 -0.266695
N -0.656701 0.404901 0.652995
C 0.331224 -0.301090 -1.099846
N -1.233807 -1.932144 0.142557
C -0.088393 0.320382 2.057604
C 1.498151 -1.062367 -1.490098
C -0.236777 1.015290 -1.671503
C -0.652653 -0.787788 -0.037927
N 2.395940 -1.591542 -1.892062
H -0.739849 -0.329986 2.684277
H 1.055324 1.621620 0.026588
H -1.296518 1.003877 -1.925279
H 0.431045 1.413146 -2.473265
H -0.062439 1.306588 2.489951
H 0.869154 -0.207872 2.037750
H -1.907185 -1.869597 0.764937