21
H12 C8 O1
O 0.474077 2.620078 -1.760713
C 1.018648 1.587341 -1.497645
C -0.407717 -1.248240 0.763233
C -0.431582 0.147014 0.073999
C 1.897405 0.844880 -2.418465
C -0.364680 1.426264 0.750549
C 0.748552 0.896041 -0.152874
C -1.741320 -2.036758 0.928665
C -1.136455 -1.390607 2.107222
H -0.115422 1.362453 1.765728
H 2.896053 0.682501 -1.993947
H -1.632738 -0.580323 2.608851
H -0.679261 -1.972496 2.879823
H -0.871015 2.235699 0.467199
H 1.500395 -0.169526 -2.656168
H 1.652778 0.553754 0.378941
H -1.655002 -3.091074 0.789951
H 1.993137 1.414277 -3.335796
H -1.106635 0.076635 -0.849868
H 0.535775 -1.769997 0.697631
H -2.574945 -1.587908 0.453680