17
H8 C7 O2
O -0.919374 0.287108 -3.555480
C -0.494702 -0.505322 -1.337012
C -1.110666 -0.204632 -0.055582
C 0.193497 0.550428 2.141999
C 0.940874 0.939886 3.248704
C 1.006459 -0.496455 -1.573028
C -0.361571 0.148062 1.099741
C -1.347476 -0.316514 -2.620033
O -1.052401 -1.546946 -0.472173
H -2.076454 0.329015 -0.058781
H 0.621117 0.369209 4.131442
H 2.027099 0.754200 3.123130
H -2.347784 -0.681986 -2.537053
H 1.557173 -0.612468 -0.678098
H 1.313829 0.352241 -2.159369
H 1.277455 -1.372444 -2.165200
H 0.772903 2.006628 3.466787