18
H9 C6 N1 O2
O 1.498785 -1.871027 -1.452851
C 0.575298 -1.335887 -0.902998
C 0.351889 0.190394 -0.877913
C 1.633109 0.955139 -1.377681
C -1.144239 0.238871 1.065934
N -1.610769 0.666500 -2.583298
C -0.803547 0.462932 -1.882930
O 0.072682 0.655638 0.394928
C -0.721460 -0.438976 2.387817
H 2.433898 0.780044 -0.683404
H -1.620579 -0.691073 2.961686
H 1.349156 2.063487 -1.427846
H 1.890277 0.589305 -2.384622
H -0.108516 0.279928 2.991661
H -1.769103 -0.431642 0.473859
H -1.713625 1.161591 1.279616
H -0.156382 -1.367283 2.271697
H -0.156880 -1.907933 -0.253663