17
H8 C5 N4
N -1.580605 -1.040504 0.420468
C 0.794609 -1.052125 0.055774
C -0.285946 0.999108 -0.109000
N 1.733350 -0.097003 -0.302039
C -0.507978 -0.512335 0.201898
N 1.108050 1.114494 -0.340867
C -1.725973 -2.457925 0.681923
C 1.840658 2.298732 -0.688666
N -1.107699 1.902495 -0.206943
H -2.775627 -2.720506 0.983659
H -1.987337 1.532987 0.037950
H 1.715515 3.091529 0.129377
H 2.863860 2.041217 -0.831989
H 1.372883 2.686041 -1.563791
H -1.100248 -2.722090 1.541776
H 1.079341 -2.033401 0.218308
H -1.436837 -3.030746 -0.227824