20
H11 C7 N1 O1
C 1.609133 0.997255 0.734984
C 0.425021 1.588174 1.122586
C 0.237311 -0.728064 -0.502108
C -0.885182 0.777640 1.215605
C -1.088172 -0.106210 -2.332851
O 0.059673 0.197186 -1.575136
C 1.496911 -0.529189 0.404041
C -0.531378 -0.654533 0.717521
N 0.704573 -1.101236 1.484617
H 0.292893 -1.728256 -0.860147
H 0.413391 2.616915 1.444681
H -1.199769 0.710301 -3.056958
H -1.586924 1.180009 0.516966
H 2.540728 1.505422 0.690965
H -1.038957 -1.024342 -2.846678
H -1.979528 -0.029389 -1.736676
H 2.474069 -0.943395 0.117579
H 0.752656 -2.178496 1.461657
H -1.278867 0.791565 2.193495
H -1.417532 -1.341356 0.805885