13
H6 C5 N2
C -0.214182 -0.339617 0.323376
C 0.383427 -2.957810 -0.319208
N 0.397311 1.936855 -0.108595
C 0.056856 -1.560025 -0.011549
C 0.144264 3.288310 0.019980
C -0.612308 1.014096 0.508915
N 0.025674 4.400546 0.137454
H 1.418866 -3.025918 -0.634337
H -0.567869 1.238369 1.642751
H 0.669058 1.664578 -1.094229
H 0.213459 -3.580264 0.546644
H -0.297684 -3.314092 -1.157992
H -1.616870 1.234947 0.146799