17
H8 C7 O2
O 0.738089 -0.957410 -1.214561
C 0.513056 1.240674 -0.033261
C 0.377184 0.408491 -1.277002
C -2.093186 0.323169 -0.103529
C -0.913104 1.013049 -0.741069
C 0.908552 -0.911712 1.215275
C 0.754879 0.475707 1.258191
C 0.775512 -1.652127 -0.083402
O -2.025383 -0.832813 0.254065
H 0.817247 1.012150 2.195634
H 0.715127 0.884240 -2.181810
H -1.251854 1.987321 -1.232422
H 1.665380 -2.390733 -0.089578
H -2.932419 0.975778 0.054687
H -0.106006 -2.356381 -0.018432
H 0.973611 2.208079 -0.126487
H 1.083325 -1.427449 2.123699