20
H11 C7 N1 O1
O 1.146960 1.590264 -0.784936
C 0.893455 -1.297776 0.868900
N -0.221772 3.428204 -0.733838
C 1.515053 0.371803 -1.181342
C -0.474060 -0.794356 0.378073
C 0.710752 -0.870960 -0.595021
C -0.071719 2.200660 -0.595785
C 0.207994 -0.233710 1.620331
C -1.687194 -1.445570 0.231944
H -0.226573 -0.526415 2.585227
H 2.566718 0.254134 -0.942003
H -1.202092 3.659514 -0.573424
H -2.319409 -1.299108 1.177265
H 0.796786 -1.730097 -1.306539
H -1.106976 1.348202 -0.129930
H -2.281128 -1.028285 -0.579668
H 1.400443 -2.199904 1.170364
H 0.588967 0.808026 1.581010
H 1.392606 0.318460 -2.272837
H -1.628793 -2.553084 0.082201