22
H13 C8 N1
C -0.489640 1.465450 -1.241290
C -1.416996 -0.189534 2.007159
C 0.497089 -0.537476 0.044226
C 0.393879 0.282629 -1.310232
C -0.668385 -0.681589 0.810257
C -0.545082 2.272854 -2.439325
C 1.123458 0.271274 1.190874
C 1.209026 -1.903651 -0.084681
N -0.572163 2.823455 -3.410139
H -1.570650 1.201142 -1.063586
H 1.950211 -0.163625 1.708296
H 1.367065 0.482276 -1.632868
H -2.215997 0.525228 1.660062
H 0.795458 -2.455685 -0.885431
H 2.296009 -1.745327 -0.238250
H 1.087932 -2.474371 0.865329
H 1.036095 1.281368 1.117607
H -1.426994 -1.513286 0.241084
H -0.718597 0.324879 2.670024
H -0.148976 2.194880 -0.503221
H -0.063525 -0.488416 -1.976313
H -1.919187 -0.972501 2.470424