17
H8 C8 O1
O 3.107210 -1.382710 -0.501844
C -1.669111 1.378177 0.806521
C -0.572295 0.472697 0.278378
C 0.805506 0.163160 1.010705
C 0.825400 -0.619434 -0.324885
C -2.611515 1.982485 1.128655
C 1.844663 -1.478727 -0.868403
C 0.188312 0.574186 -1.093037
C -0.723661 -1.085384 -0.004136
H -3.376288 2.642917 1.483096
H 1.479184 1.050669 1.038440
H -1.277943 -1.363977 -0.900896
H 1.491407 -2.228922 -1.597756
H 0.878427 1.491434 -1.192808
H -0.832647 -1.689307 0.847805
H -0.352495 0.440461 -2.024695
H 0.795861 -0.347719 1.914907