25
H16 C9
C -1.643435 -0.322255 1.089102
C -0.129081 -2.067723 0.250890
C -0.251326 -0.560292 0.456311
C 1.368558 0.798091 0.183991
C -0.734417 1.406996 -1.162332
C 0.891965 1.497695 1.421477
C 0.229223 0.336370 -0.698148
C 0.861538 0.005378 1.339660
C 0.743703 -0.421805 -1.922319
H -1.618477 1.043701 -1.791693
H -0.304636 -2.639921 1.203244
H 1.668136 1.890713 2.087322
H -0.253367 2.092812 -1.861651
H -0.838561 -2.443376 -0.479937
H 2.391036 0.959736 -0.171236
H -1.886201 -0.989967 1.919519
H -2.438181 -0.516160 0.323744
H 1.470065 -1.129386 -1.695279
H -1.180393 1.993243 -0.358316
H -1.803997 0.674474 1.420293
H -0.052977 -0.921725 -2.465980
H 0.006631 2.047921 1.491232
H 1.169543 0.270505 -2.650913
H 0.889866 -2.351812 -0.037712
H 1.444755 -0.653223 2.108732