18
H10 C6 O2
O 1.187482 0.564597 1.687191
C -0.784678 -0.425292 -1.399744
C -0.439494 0.230795 -0.067920
O 2.552691 -1.375152 0.561224
C 1.026945 0.440837 0.283238
C 1.916970 -0.671470 -0.203616
C -1.334247 1.306312 0.483262
C -0.921913 -1.205657 -0.142457
H -1.887339 -1.378271 0.248552
H -2.388371 1.113741 0.228452
H -1.659308 -0.063520 -1.906942
H 0.007841 -0.740155 -2.053448
H -1.076588 2.276669 0.122742
H 2.099639 -0.676142 -1.333284
H -1.237834 1.368050 1.540949
H 1.357664 1.399437 -0.124061
H 1.777217 -0.116985 1.984530
H -0.196658 -2.047788 0.091297