19
H11 C7 N1
C 0.593068 -0.635874 0.957812
C 1.160074 0.044353 -0.939072
C -0.369336 -2.193712 -1.022020
C 1.146569 0.686543 0.444126
C 0.163458 -0.877387 -0.471172
C -1.269652 1.714878 0.863884
C -0.063341 1.462900 -0.054079
N -0.283240 0.421805 -1.076339
H -0.417554 -2.143365 -2.121190
H -2.131190 2.054814 0.283451
H 0.187452 2.379887 -0.601857
H -0.066813 -0.637154 1.797084
H -1.131513 2.473653 1.608408
H 1.465368 -1.332043 1.200729
H -1.358575 -2.396337 -0.623730
H -1.680025 0.807529 1.410941
H 1.865302 -0.013630 -1.822202
H 1.946110 1.225080 0.924234
H 0.243855 -3.041954 -0.759006