23
H14 C7 O2
C 1.364657 1.402087 0.362355
C -1.672669 -0.568713 -0.071240
C 0.972884 -0.144556 0.308705
C -1.176604 -1.765373 0.574543
O -0.744790 0.144288 2.094947
C 2.788190 1.572624 -0.045411
C -0.438627 -0.439937 0.781073
C -1.589880 -0.359601 -1.562105
O -2.636434 -1.151933 -2.156418
H -3.430702 -0.805562 -1.922794
H 1.055051 -0.472092 -0.710091
H -2.531445 -0.100178 0.327058
H 2.984978 1.245649 -1.008084
H 1.630739 -0.699812 0.914502
H -1.683149 0.662125 -1.823205
H 1.144615 1.751727 1.393893
H -0.309582 -0.387523 2.774434
H 3.507390 1.025085 0.609284
H 0.610104 1.917164 -0.192413
H -1.646478 -2.237535 1.415776
H 3.077609 2.584559 0.005964
H -0.635678 -0.703470 -2.014904
H -0.640144 -2.469037 -0.055862