15
H7 C5 N1 O2
C -0.065448 -1.372574 -0.258514
C 0.751275 1.061203 -0.460182
C -0.856121 -0.571928 0.600187
C -0.291428 0.088697 -0.626869
O -2.219652 -0.513953 0.984031
C -1.150135 -0.190091 1.881602
O 0.811934 1.839635 0.466393
N 1.676482 1.154010 -1.516365
H 0.945272 -1.672594 0.107872
H -0.977844 0.188664 -1.488270
H -1.078200 0.836736 2.239955
H -0.575687 -2.228734 -0.865646
H 2.495456 1.781517 -1.465191
H 1.536316 0.571625 -2.312621
H -1.002218 -0.972206 2.713610