22
H14 C8
C 0.850748 2.070932 0.479889
C -1.392880 0.174390 -0.876373
C 0.124958 -0.133152 -0.617712
C -0.183978 -1.641164 -0.665097
C 2.090476 -0.077717 0.953123
C -2.298030 -0.608531 0.061163
C -1.581641 -1.336363 -1.016543
C 0.704264 0.598164 0.698881
H 0.031888 0.336257 1.475201
H 0.691133 0.203135 -1.468661
H -2.143147 -1.838585 -1.770418
H -1.746943 0.928853 -1.535334
H -0.106938 2.532426 0.177413
H -2.019390 -0.740997 1.097743
H -3.374161 -0.312610 -0.089797
H 1.185333 2.558939 1.376875
H 1.559142 2.293125 -0.318109
H -0.074324 -2.174261 0.278047
H 2.804179 0.118912 0.170065
H 0.408455 -2.117067 -1.385791
H 2.017630 -1.143255 1.079685
H 2.453213 0.308547 1.895743