16
H7 C6 N1 O2
C -1.748354 -0.440875 0.899795
C 1.129684 -0.661349 -0.805104
C -1.090857 -0.598584 -0.449595
C 1.983847 1.404832 0.270027
N 2.762013 2.210631 0.267311
C -0.499387 0.775644 -0.091554
O -1.315814 0.914802 1.022873
C 0.991433 0.370252 0.289136
O 0.030962 -1.490698 -0.664470
H 2.052235 -1.381196 -0.646645
H -1.758437 -0.678412 -1.293339
H -2.821540 -0.512237 0.888802
H -1.401752 -1.082013 1.692674
H 1.273855 -0.254199 -1.819285
H 0.965003 -0.181164 1.218337
H -0.552897 1.604556 -0.778958