15
H6 C5 N2 O2
N -0.095575 -0.834097 -0.451613
C -0.109766 -1.643825 -1.552078
O -0.118221 0.722106 2.450189
C 0.148514 1.903037 1.913245
C 0.065144 0.678898 -0.200346
C -0.038577 -0.030153 1.560977
O 0.118559 1.145528 -1.583386
C -0.207012 -1.150379 0.888997
N 0.206004 1.928674 0.488140
H 0.249248 2.808256 2.475097
H -0.314691 -2.165418 1.234200
H -0.186670 -0.942865 -2.430201
H 0.414053 2.045602 -1.549267
H -0.927541 -2.245335 -1.584133
H 0.796517 -2.220013 -1.659779