21
H12 C8 O1
C 0.064810 -0.185561 -2.059279
C 0.528427 0.838470 -1.097312
C -1.700968 -0.331608 -0.189680
C 1.270885 -0.867301 2.374348
C 1.253260 0.503184 0.175630
C 0.527819 -0.415790 1.120225
O -1.774087 1.411135 -1.941055
C -0.808208 -0.753675 0.918954
C -0.985526 0.439209 -1.297150
H 2.085079 -1.452906 2.070760
H -1.824695 2.197539 -1.404139
H 2.224537 0.085289 -0.061558
H 0.397167 -1.217751 -1.814932
H 1.722051 0.008103 2.864858
H 1.440870 1.464375 0.691437
H 0.611108 -1.457526 3.053192
H -1.300254 -1.369307 1.678524
H -2.179795 -1.125618 -0.581990
H -2.486528 0.344439 0.234455
H 0.777984 1.863736 -1.611922
H 0.156097 0.021564 -3.123377