18
H10 C5 N2 O1
C -0.378274 -1.523547 0.496685
N -2.369191 0.991810 0.782106
C -1.670790 0.596474 -0.221950
C 0.812860 0.695845 0.425713
C 2.254248 0.250594 0.111884
N -0.227850 -0.178883 -0.160766
C -0.713928 0.105312 -1.404652
O -1.830492 0.745869 -1.557167
H -0.330503 -0.429124 -2.396157
H -1.346652 -1.988224 0.172174
H 0.480001 -2.154442 0.192785
H 0.527117 1.682661 0.052378
H 0.653435 0.689478 1.538524
H -3.276836 1.461114 0.404847
H 2.407193 0.252783 -0.999153
H -0.378321 -1.403777 1.588643
H 2.444186 -0.750315 0.427226
H 2.943797 0.956379 0.546920