17
H8 C5 N2 O2
C -0.054324 2.081460 -1.487471
C 0.289753 0.837339 -1.780488
O -0.263129 2.138997 -0.094292
C -0.017616 0.883224 0.398834
C 0.139310 -0.586174 2.179760
O 0.441947 0.082966 -0.687257
N -0.263914 0.604501 1.566565
C -0.673516 -1.855780 1.665993
N 0.577267 0.252526 -2.978490
H 1.229168 -0.746013 1.978740
H -0.494690 -1.991952 0.686285
H -0.183674 2.982872 -2.087245
H -0.438511 -2.681789 2.336239
H 0.998551 -0.621020 -2.992047
H 0.035785 -0.457529 3.272680
H 0.446169 0.741420 -3.830341
H -1.768596 -1.665054 1.852556