18
H9 C7 N1 O1
O -2.154483 3.174001 0.275488
C -1.265002 0.975676 0.121209
N 1.788864 -0.931145 0.665286
C -1.607667 2.260979 0.772422
C 0.267889 -0.529265 -1.151090
C 0.829433 0.030722 1.120256
C 1.434110 -1.365185 -0.584954
C 0.074101 -1.948465 -0.737206
C -0.008744 0.628729 -0.173169
H -0.131229 -2.659501 -1.543568
H 0.613265 1.437770 -0.530276
H 0.285184 -0.244040 -2.203058
H 0.079766 -0.443402 1.787114
H -1.245877 2.170035 1.813412
H -2.147735 0.469999 -0.230134
H 2.336835 -1.682227 -1.222919
H 1.365526 0.769661 1.685593
H -0.514219 -2.114348 0.135588