20
H12 C5 O3
C 0.051088 0.384293 -0.576002
O 0.245791 -0.863156 0.339626
C -0.553425 -2.170997 2.086981
C -0.729345 -1.214731 0.980730
O 0.651139 1.457542 0.016628
C 0.947575 -0.143489 -1.690022
C 0.002712 2.665139 0.152814
O 0.691461 -1.346622 -2.177970
H -1.053999 0.190042 -0.761668
H 0.686958 -1.974998 -1.566052
H 1.105268 0.602060 -2.555466
H -0.353290 1.431202 -1.734869
H -0.199771 3.272820 -0.809684
H 0.646689 3.366761 0.747818
H 2.005699 -0.143250 -1.162517
H -1.731067 -0.836126 0.838525
H -0.992662 2.651150 0.691271
H -0.346674 -1.613548 3.011917
H 0.332163 -2.862083 1.904771
H -1.406312 -2.852022 2.263175