25
H16 C8 O1
C 0.431533 0.115896 -1.606251
C -0.114028 -0.530334 -0.344847
C -0.368480 0.352148 0.919560
C 0.028070 -1.998202 -0.132953
C -0.108254 1.541246 -1.822567
C 0.263399 -0.637485 -2.908914
C 0.226619 -0.117957 2.257936
O -1.210696 -1.422530 -0.550112
C -0.076631 0.814145 3.391371
H 0.244968 1.853647 3.226903
H 0.073812 1.311429 0.771444
H -1.196813 1.574077 -1.796239
H 0.556954 -1.674845 -2.846855
H 0.335569 0.505564 4.370410
H -1.190346 0.890870 3.498886
H 0.720884 -0.181259 -3.753974
H 0.268934 1.939524 -2.762679
H 0.019308 -2.467350 0.857058
H -0.853220 -0.734698 -3.146851
H -0.201933 -1.134398 2.533576
H 0.231501 2.278680 -1.071951
H 1.510582 0.187124 -1.408072
H 0.591143 -2.569077 -0.864702
H -1.457554 0.392124 1.003605
H 1.274696 -0.288360 2.186226