23
H14 C9
C -0.002104 0.045496 0.380753
C -1.178382 -1.584138 -0.323346
C -1.126126 0.696078 1.291653
C -0.682376 2.083123 -1.203181
C 1.277472 -0.369260 0.914721
C -0.069400 0.665599 -1.202538
C -0.495189 -0.368607 -0.072975
C -1.102612 3.209097 -1.235542
C 2.238054 -1.256068 0.065537
H -1.014745 0.237381 2.335317
H -0.746965 1.824763 1.448272
H -0.578255 0.135743 -2.157135
H 0.986722 0.787233 -1.592177
H -1.255947 -2.288394 0.612566
H 1.900438 0.550668 1.072722
H 2.478008 -0.822529 -0.859417
H 1.076988 -0.931117 1.879047
H 3.221732 -1.456468 0.607989
H -0.778869 -2.208481 -1.100010
H -2.166996 0.644613 1.081074
H -1.578362 4.145081 -1.279122
H -2.235261 -1.429643 -0.582770
H 1.832164 -2.310181 -0.081412