13
H7 C4 N1 O1
C 0.428885 -1.129257 0.774960
C 1.122057 0.158478 0.518891
C -0.931819 -0.565225 0.390576
C -0.187949 0.848537 0.130766
H 2.030860 0.603840 0.895800
H 0.263722 0.782234 -1.834911
H -1.630884 -0.509559 1.242569
H -1.088744 1.790465 -1.417438
H -0.510791 1.551046 0.904468
H -1.422051 -0.990033 -0.477604
H 0.635470 -1.901590 1.490310
N -0.145989 1.483297 -1.172576
O 1.328423 -0.970113 -0.318939