13
H7 C4 N1 O1
C -0.799808 0.644107 0.466051
C 0.326159 0.992398 1.387770
C -0.400394 -1.320267 -0.724637
C 0.509503 -0.376690 -1.419926
H 0.545408 2.052824 1.195727
H 1.456456 -0.124550 -0.950339
H -1.128124 -1.939681 -1.249902
H 0.531180 -0.345838 -2.516647
H -0.022605 -1.744482 0.213813
H -0.028013 0.812505 2.415327
H -1.804091 0.898991 0.771919
N -0.676210 0.139563 -0.803136
O 1.490563 0.311104 1.213954