15
H6 C6 O3
C 0.052476 -1.173326 0.773406
C 0.709761 -0.106506 1.497002
C 0.478537 1.078129 0.231104
C -0.620718 0.301314 0.882541
O 1.546630 0.673600 0.923646
C 0.337829 0.333651 -1.228676
O -0.347993 0.789468 -2.274417
C -0.481645 -0.759128 -0.584273
O -1.404514 -1.468599 -1.259712
H 0.918009 -0.326392 2.518597
H 0.373861 2.256450 0.105872
H -1.589958 0.535612 1.330225
H 1.270055 -0.004250 -1.608790
H -1.160780 0.081947 -2.430756
H -0.081536 -2.211977 1.124226