18
H9 C7 N1 O1
C 1.194692 1.319718 0.727960
C -1.032361 -0.864428 -0.416518
C 0.100692 0.367545 1.029607
C 0.195014 -1.134528 0.519273
C -1.205978 0.577952 0.182110
N 2.460114 -1.848206 -0.547783
C 1.448845 -1.551052 -0.073109
C -0.886918 -0.081842 -1.659281
O -1.100870 1.228685 -1.048740
H 1.399094 1.352398 -0.318564
H 2.133879 0.996252 1.304995
H -1.696424 -0.181456 -2.363123
H -2.163403 0.796996 0.836442
H 0.094114 -0.089026 -2.207388
H -0.043429 -1.851191 1.245501
H -0.101220 0.309152 2.101265
H 1.014531 2.289841 1.148567
H -1.810347 -1.636814 -0.461257