24
H15 C8 N1
C -0.867392 -0.543013 0.172434
C 0.032049 0.158234 -2.249858
C -0.967013 2.633463 0.961583
N 1.266307 -0.413562 0.438883
C -0.375017 -0.864725 -1.221788
C 0.069847 0.320491 0.982695
C 0.261304 1.796661 0.748614
C 0.410485 -1.427373 -0.054384
C 0.752715 -2.838632 0.259724
H -0.163546 0.111273 2.037360
H 1.622617 -3.202136 -0.325185
H -0.094572 -3.518998 -0.000624
H -0.240601 -0.182668 -3.235384
H 1.005495 2.077982 1.509429
H 1.129743 0.377262 -2.171244
H 1.937892 -0.537015 1.138600
H -1.087602 -1.750400 -1.599117
H 0.667550 1.973603 -0.225281
H -1.743336 2.391739 0.239274
H -1.424152 2.503916 2.002765
H -0.566078 1.103397 -2.092910
H 1.048079 -3.026511 1.309518
H -0.774438 3.655862 0.891731
H -1.900334 -0.798895 0.483179