22
H13 C7 N1 O1
C -1.517647 -1.605459 -0.057794
C 1.635127 1.828103 -0.943039
C 0.672841 0.788884 -0.605389
C -0.225390 -0.888976 -0.200979
C -0.041516 0.012856 -1.538892
O 2.035295 1.907926 -2.054043
C -1.696812 -2.320535 1.278655
C 0.008057 0.272027 0.671155
N 1.986396 2.697211 0.159840
H 2.987826 3.049407 0.024267
H -0.903755 0.839092 0.902985
H -0.946803 0.487592 -1.818751
H -1.557372 -2.418004 -0.849970
H -1.716045 -1.587091 2.101069
H -2.578472 -2.907501 1.323307
H 0.661431 -1.597287 -0.122477
H 1.941319 2.242514 1.153363
H 1.433020 3.525764 0.149143
H 0.432347 -0.504920 -2.337195
H -0.817613 -2.973221 1.483325
H 0.589059 0.209748 1.540810
H -2.381279 -1.058070 -0.259368