20
H11 C6 N1 O2
C 2.480538 0.155818 -0.896433
C 0.369946 -1.985250 -0.822188
C -1.598423 1.334211 1.940269
O 3.394129 0.785995 -1.372676
C -1.304210 0.138561 0.956837
N -0.071003 -0.642817 -1.036295
C 0.987304 0.332856 -1.226478
C -0.631943 0.558824 -0.314260
O 0.538642 1.280641 -0.255739
H -0.620502 -0.591929 1.451219
H 2.605510 -0.532176 -0.020083
H -2.216348 2.059154 1.451145
H -2.246561 -0.341761 0.712400
H -2.147056 0.928681 2.817244
H -0.685472 1.793572 2.162825
H -0.402073 -2.632547 -1.301383
H 1.361905 -2.223735 -1.315621
H 0.407272 -2.288418 0.205616
H 0.982116 0.612683 -2.262177
H -1.203804 1.257650 -0.874227