17
H9 C5 N1 O2
C 1.269132 -1.494460 0.172891
C 0.274227 -0.369563 -0.000677
O 2.213388 -1.737790 -0.500653
N -0.992307 -0.663473 0.508236
C -1.850001 0.438149 0.843837
C 0.334654 0.155714 -1.492044
O 1.409401 1.049788 -1.144192
C 1.130043 0.936323 0.211209
H -1.411958 -1.336947 -0.084599
H 2.067864 0.872664 0.937667
H 0.540808 1.761554 0.641973
H 1.085254 -2.131527 1.061714
H 0.653294 -0.548730 -2.254503
H -0.557614 0.734255 -1.752462
H -1.823349 1.333944 0.139982
H -1.482217 0.838646 1.816376
H -2.860629 0.161457 0.895265