18
H9 C7 N1 O1
C 1.225975 -0.565609 -0.348287
C 0.817619 0.413539 1.590464
N 0.401085 -0.579314 -1.530244
C 1.213844 0.874797 0.165581
C -0.629783 0.033755 -0.619501
O -2.691607 -1.141774 -0.769662
C -2.121995 -0.143678 -0.982604
C -0.056969 -0.662243 0.785243
C 0.011870 1.316065 -0.424311
H -1.023784 -0.599445 1.417282
H -0.462221 2.321331 -0.778840
H 1.679342 -0.020719 2.094610
H -0.156802 -1.811426 0.790874
H -2.511733 0.677637 -1.588120
H 0.209225 1.110223 2.229267
H -0.065559 -1.619701 -1.694366
H 2.078966 1.532409 0.023735
H 2.082528 -1.135837 -0.361133