18
H9 C5 N1 O3
O -3.561585 -0.439201 -0.967631
C -0.151574 0.026040 1.019762
C -1.294402 0.060442 -0.256023
O 1.822094 -0.558487 -0.209899
N -0.215976 -0.338054 2.271642
C 3.165275 -0.075965 0.163707
C -2.621006 -0.574707 0.068712
O 1.197731 1.749413 0.019920
C 0.981363 0.369986 0.228568
H -0.747744 -0.444604 -1.093351
H -2.982470 -0.160515 0.939632
H 0.876368 1.765781 -0.986811
H 3.518950 0.648417 -0.493087
H 3.802583 -0.965701 0.061617
H 3.224159 0.250995 1.212892
H -2.440303 -1.588979 0.295965
H -3.164781 -0.830949 -1.749796
H -1.408714 1.106085 -0.525813