20
H12 C6 O2
C -0.034195 -0.796963 1.799385
C -0.637286 -0.696709 -0.657355
O 1.852778 0.688285 1.258380
C 0.684245 0.517653 1.871160
C -0.269864 0.835537 -2.520351
C 0.190471 0.478315 -1.117788
O 1.591495 0.086230 -1.137514
C -1.219647 -0.954144 0.759235
H -0.087188 1.224082 -0.439564
H -1.616743 -1.952781 0.841804
H -1.195193 0.967017 -2.607895
H 0.067307 -0.047655 -3.219798
H 0.781494 -1.584700 1.519227
H -0.486140 -1.091139 2.732988
H 2.000839 0.308217 -0.271664
H 0.420334 1.678312 -2.877321
H 0.850846 0.818787 2.946625
H -1.960280 -0.239312 0.950729
H -0.076134 1.287199 1.530657
H -0.857170 -1.526240 -1.360946