17
H8 C5 N2 O2
C 1.000681 0.560176 1.697991
C -0.932510 0.569934 -0.770061
N 1.178443 -1.683052 1.148318
C 0.721274 -0.578255 0.744545
N 0.098669 -0.373248 -0.470728
C -1.454529 1.606649 0.121823
O -0.207971 -1.380913 -2.652371
C 0.351532 -1.333416 -1.469419
O -1.581091 0.539748 -1.922381
H 1.504087 0.258952 2.666765
H 1.329682 -2.367809 0.434422
H 1.147090 -2.015603 -1.214485
H 1.586096 1.366445 1.265200
H -2.368263 2.051049 -0.213187
H -1.450320 -0.154959 -2.396598
H 0.055713 1.022393 2.102296
H -0.978555 1.911904 0.927864