21
H12 C8 O1
C 1.224785 -0.980435 1.153320
C 1.735506 0.480581 0.874292
C -2.289399 0.639603 -1.511238
C -0.235198 -0.991974 1.222374
C 0.207655 0.766652 -1.215946
C -0.989852 0.381361 -0.666042
C 1.552946 0.822135 -0.649821
C -1.180861 -0.282219 0.545364
O -0.730633 -1.871904 2.240366
H 2.758997 0.570437 1.102030
H 1.995542 1.799246 -0.861930
H 1.472885 -1.607692 0.320429
H -2.278850 1.587729 -2.026933
H 2.238246 0.114414 -1.204918
H 0.167675 1.125074 -2.260509
H -2.374318 -0.127364 -2.248176
H 1.646699 -1.341041 2.054970
H 1.173282 1.225228 1.402728
H -3.162794 0.576206 -0.927484
H -0.767939 -2.636301 1.672530
H -2.164367 -0.249722 0.984607