19
H10 C7 O2
C -1.081090 -0.476730 0.972549
C 0.303555 -0.898002 1.483937
C 1.295261 0.094567 -1.742040
O 1.244491 0.000523 1.247539
C 0.588594 1.103016 0.589347
O -1.893718 1.635433 0.129206
C -0.419587 -1.780747 0.425128
C -0.812073 0.683465 0.160236
C 0.368744 0.995365 -0.895139
H -0.898422 -2.713840 0.833710
H 0.100916 1.894934 -1.382390
H -2.478540 1.370890 -0.593302
H 0.463314 -1.344539 2.479337
H 2.142252 0.654389 -1.922516
H 0.762606 -0.176321 -2.659743
H -1.972466 -0.518206 1.591174
H 0.789575 2.120612 1.006414
H -0.068574 -1.854664 -0.528972
H 1.565183 -0.790148 -1.194493