16
H8 C5 O3
O -1.560491 2.511001 1.616879
C -0.726731 -0.494902 0.015227
C -0.086366 -0.916374 -1.328569
C 1.446444 -0.939011 -1.355026
C -0.109518 0.860806 0.465898
C -0.989453 1.430783 1.589738
O 1.148678 0.803298 0.971930
O 2.090732 -1.830931 -0.849050
H 1.315778 0.172948 1.716574
H -0.169096 1.645173 -0.311976
H -1.821371 -0.445609 -0.155100
H 1.916775 -0.090661 -1.874786
H -0.554661 -1.201425 0.780175
H -0.424914 -1.944619 -1.600995
H -1.111638 0.704039 2.452418
H -0.364175 -0.264524 -2.133278