18
H9 C6 N1 O2
C 1.096428 0.612525 0.343835
N -1.058119 0.469772 1.903060
C 0.002292 0.231439 -0.606533
O -0.852786 1.932499 0.086984
O -0.724839 -2.048014 -0.163263
C -0.285628 0.705319 0.758883
C 1.451104 -0.948486 0.247382
C -0.674078 1.483500 -1.298406
C 0.248502 -1.162557 -0.712071
H -0.084722 2.089803 -1.927340
H -1.397983 -2.118159 -0.915267
H -1.842779 -0.131495 1.760029
H -1.660563 1.245764 -1.805374
H -0.446534 0.255562 2.663878
H 2.443755 -0.990002 -0.296679
H 1.444698 -1.554215 1.231092
H 1.746852 1.401116 0.434487
H 0.594409 -1.474372 -1.704711