21
H12 C5 O4
O -0.804059 -4.099463 1.942894
C -0.263782 -3.020152 1.834062
C -0.567777 2.342271 -1.288001
O -0.313875 -2.248929 0.818897
C -0.321976 -0.023332 -0.259636
C 0.297159 -0.955072 0.659337
O 1.634342 -1.222605 0.280390
C 0.278620 1.378830 -0.437647
O 0.175733 2.990250 -2.140283
H -1.432716 0.104772 0.001668
H 1.184044 1.502883 0.025037
H 0.370482 -0.530893 1.633598
H -0.422883 -0.516717 -1.243501
H -1.006305 3.106495 -0.507067
H -0.230714 1.658431 0.733635
H 0.326246 -2.486507 2.761110
H -0.433408 3.564157 -2.724357
H -0.012709 -2.912868 0.097289
H 0.940638 1.039567 -1.539059
H -1.416890 1.892140 -1.690758
H 2.019824 -1.563260 1.042408