14
H5 C6 N1 O2
O -0.978723 2.536046 -0.267375
C -0.480049 1.249325 -0.127752
C -1.082587 -1.143122 0.284535
C 1.619823 -0.158892 -0.223900
C 0.891540 1.105625 -0.263030
C 1.441310 -1.596674 0.110871
O 0.084704 -1.797180 0.295088
C -1.350610 0.197877 0.098118
N 2.630769 -0.859844 -0.165177
H -1.838903 -1.806619 0.348515
H -1.923312 2.531843 -0.083507
H -2.425871 0.407185 0.191311
H 1.872664 -2.621989 0.277075
H 1.539257 1.956414 -0.474755