13
H4 C4 N2 O3
O 0.003700 2.136299 0.568795
C 1.773700 -0.372870 0.743390
C -0.526556 1.007589 0.094600
O -2.635597 -1.237469 -1.172374
C -1.735285 -0.578756 -0.735486
N -0.506564 -1.138460 -0.499012
C 0.485502 -0.188420 -0.110033
N -1.666948 0.783921 -0.317812
O 1.695719 -0.176367 -0.673368
H -0.217405 -1.994027 -0.864819
H 1.990899 -1.481810 1.052645
H 2.068795 0.434215 1.361322
H -0.729969 2.806148 0.552141