17
H8 C7 N2
C -0.099116 -1.364633 -0.046581
C -0.995394 0.248846 -0.905202
C 1.782602 0.265933 -1.205978
C 0.398796 0.598644 0.971629
C 0.501577 0.022614 -0.404144
N -2.447889 0.855695 3.275136
C -0.901132 0.264619 1.300269
C -1.787217 0.612515 2.338704
N -1.385585 -0.613658 0.268295
H 0.326439 -1.906554 0.797324
H 1.679628 -0.188639 -2.199911
H -1.184236 -0.238680 -1.865718
H 1.988804 1.299744 -1.409521
H 1.080405 1.135746 1.613832
H -1.347264 1.252832 -0.886163
H 2.648713 -0.179962 -0.724434
H -0.259131 -2.065074 -0.917534