18
H9 C6 N3
C -0.484569 1.974241 -0.239088
C 2.204246 -1.816658 0.782234
C -1.268755 -1.137574 0.601296
C -0.205347 0.625038 -0.748178
N 3.260199 -2.331554 1.083111
N -1.300257 -0.459123 -0.733782
C 1.099081 0.078622 -0.268130
N -0.029043 -1.858306 0.851823
C 0.946955 -1.220164 0.419650
H -1.458432 -0.381495 1.413820
H -0.503649 1.945244 0.794810
H 0.235063 2.680973 -0.564678
H -0.141712 0.670353 -1.869715
H 1.819819 0.053480 -1.092740
H -2.282648 -0.085498 -0.840094
H -1.434469 2.346668 -0.638509
H -2.033919 -1.910112 0.653666
H 1.577409 0.825872 0.394501