18
H9 C6 N3
C -0.665340 -1.357592 0.687822
C 0.941807 2.646000 -1.126372
N 2.160742 3.186568 -1.328931
C -0.510652 0.952125 -0.293860
C -1.069412 -2.576401 1.240596
N -0.179564 3.334666 -1.078957
C -0.157414 -3.713320 1.005408
C -0.467322 -0.386584 0.267246
N 0.800396 1.391887 -0.666886
H -0.473930 3.738895 -0.400874
H 1.907528 4.131392 -1.580086
H -0.588004 -4.524402 1.607200
H 0.787056 -3.599818 1.286693
H -0.182046 -3.999685 -0.018809
H -1.152383 1.000946 -1.140902
H -1.948890 -2.713367 1.729643
H 1.660011 0.857469 -0.679840
H -0.862586 1.631191 0.490925