18
H9 C6 N1 O2
O 1.094332 0.952660 1.203519
C 0.896882 0.830723 -1.598382
C 1.015408 -0.425324 0.982576
C 0.278323 1.592779 0.568615
O -2.028966 -1.206439 -0.162583
C -0.283497 0.016138 -1.161718
C -0.534081 -0.998432 -0.106675
C -0.306090 -1.033993 1.387095
N -0.253039 1.366950 -0.612033
H 1.868277 0.651158 -1.298608
H -0.962743 -0.373458 1.947390
H 0.827104 1.348174 -2.581918
H -0.988629 0.020955 -1.884532
H -2.300789 -0.267669 0.061562
H 0.014226 -1.940274 -0.568705
H 0.069662 2.544759 1.013106
H 1.837240 -1.038453 0.898184
H -0.243616 -2.040253 1.913098