21
H12 C6 O3
C 1.843673 -0.562886 -2.488337
C -0.109337 -0.656061 1.795659
O -2.491577 0.584162 0.585388
C -1.028165 0.578800 0.795500
O 1.057845 -0.256110 -0.518800
C -0.268960 0.069951 -0.460891
C -0.578115 -1.043610 0.497411
C -0.560869 1.832464 1.504547
O 0.722463 -1.030177 -1.821726
H 0.509573 1.793892 1.712279
H -2.870280 0.015154 1.354262
H -0.762531 0.480432 -1.303378
H -1.077343 -1.853818 0.250564
H 2.785330 -0.584986 -1.857176
H -0.712504 2.577146 0.746287
H 2.044394 -1.060388 -3.389617
H 0.958207 -0.510269 1.946437
H -0.749374 -1.023554 2.623619
H -1.121695 2.024365 2.368497
H 0.727794 -1.915805 -1.730032
H 1.681469 0.541353 -2.610495