17
H8 C5 O4
O -1.272933 -0.178070 -0.107827
C -1.344276 -0.014164 -1.425628
C 0.777588 0.185455 -1.176574
O -0.137843 -0.264010 -2.049463
C 0.443603 0.921314 1.204878
O -0.208320 0.721444 2.461537
C 0.195477 -0.073316 0.232329
O 0.855170 -1.850248 1.730604
C 0.508797 -1.540330 0.654414
H 1.100854 1.237976 -1.211044
H 1.533903 1.032280 1.452151
H -1.686172 1.064726 -1.556341
H -0.945232 0.218812 2.356876
H 0.397876 -2.217891 -0.221090
H 1.695123 -0.432961 -1.371665
H -2.135348 -0.724146 -1.771902
H 0.221731 1.913106 0.798725