23
H14 C8 O1
C 1.336333 1.787622 -0.807040
C -1.726861 -0.339602 0.325097
C 0.614741 -1.356147 0.149340
C -0.184518 -0.144924 0.014160
C 0.446473 1.202306 0.291483
O 1.422602 3.098533 -0.774461
C -2.022385 0.186409 1.714119
C 1.836704 -1.507751 -0.676916
C -1.178012 -0.500910 -0.954622
H -1.207720 0.031153 2.432360
H 0.349187 -2.142790 0.743144
H 0.800477 1.548868 -1.841113
H -1.383626 0.284512 -1.756095
H 2.204464 -2.553077 -0.681201
H -2.249158 1.223781 1.718786
H -0.282174 1.929766 0.611035
H -2.746239 -0.736292 -0.052291
H -2.861221 -0.423410 2.055055
H 2.300184 1.221590 -0.887611
H -1.005384 -1.726487 -0.942370
H 2.638548 -0.935223 -0.195437
H 1.113672 1.021278 1.236414
H 1.783886 -1.169209 -1.721874