23
H14 C7 O2
C 0.390581 -1.428613 -0.863519
C -0.502828 -2.178609 -1.817371
C 0.332489 2.054122 -0.713664
C 0.748793 1.505838 0.580772
C 0.275192 0.166940 1.131360
C -0.568813 0.264382 2.409026
O 1.586870 1.400967 -0.437509
C -0.504252 -0.720177 0.128626
O 0.586219 3.235115 -1.266235
H 0.145137 -2.806092 -2.468957
H 1.216527 -0.277198 1.432407
H -0.754670 1.797626 -0.860358
H 1.080318 -2.032151 -0.320489
H 1.046104 -0.777458 -1.426107
H 0.896617 2.240164 1.368388
H 0.904686 2.547053 -1.916756
H -1.311599 -0.153671 -0.286793
H -0.790799 -0.678325 2.923455
H -0.994191 -1.452389 0.702394
H -0.009344 0.851159 3.192548
H -1.084652 -1.575195 -2.450343
H -1.465765 0.793641 2.250444
H -1.222613 -2.777126 -1.291314