14
H5 C6 N3
C 0.042851 1.009067 0.734406
N 0.516394 1.405503 -2.848162
C -1.831317 -0.827095 0.433317
C 0.790316 0.504886 -0.563203
C 0.494421 1.042219 -1.921581
C -0.461507 -0.509202 0.865843
C 0.608924 -0.990685 -0.147757
N -2.862785 -0.987909 0.131669
N 1.532015 0.123516 0.354690
H 0.692470 -1.094035 -1.266526
H 1.003089 -1.961096 0.201918
H 0.491378 1.441239 1.649152
H -0.744484 1.719257 0.470736
H -0.271776 -0.875640 1.905508