12
H3 C5 N3 O1
N 1.430970 -0.662282 2.442347
C 0.753833 0.385061 -0.677993
O 1.259013 0.259590 0.461366
N -0.877082 -0.266931 1.547368
C -1.649265 0.329799 -0.616751
C 0.539298 -0.296063 1.538497
C -0.589083 0.362426 -1.362620
C 0.527648 0.394771 -2.014197
N -1.769383 0.004475 0.659859
H 1.097244 0.449735 -2.910560
H 1.885849 -1.424931 2.062247
H -2.609041 0.464348 -1.129570