12
H6 C6
C 0.737404 -0.590366 0.987855
C -0.798185 1.139384 0.211264
C -0.073789 -0.687157 -1.337841
C -1.092972 2.285453 0.304297
C -0.389371 -0.294412 0.110152
C 1.700325 -0.844815 1.705221
H -0.937797 -0.498161 -1.995136
H 0.747953 -0.082092 -1.713439
H 0.220549 -1.741378 -1.432476
H 2.495721 -1.078449 2.299107
H -1.248084 -0.904257 0.429948
H -1.361736 3.296262 0.431046