12
H6 C6
C 0.852858 -0.777071 -0.820058
C -1.158090 0.258235 -0.024968
C -0.101657 1.174081 0.252212
C 0.775144 -1.072755 0.536123
C -0.021959 0.394783 -1.057638
C -0.143957 -0.032366 1.111953
H -0.071116 2.217259 0.492069
H 1.367571 -1.336937 -1.566746
H 1.208114 -1.910545 1.053568
H -0.390547 0.021685 2.143596
H -2.169451 0.184746 -0.108638
H -0.146905 0.878866 -2.011471