12
H6 C6
C -0.162475 1.652647 -0.894841
C -0.084821 0.598406 -0.337340
C -0.293814 2.911986 -1.595193
C 0.142606 -1.671431 0.880815
C 0.050387 -0.611074 0.318254
C 0.317398 -2.932471 1.577478
H 0.202353 -3.770379 0.899909
H 0.409251 3.025544 -2.439942
H -0.465601 -3.026310 2.376272
H -0.116467 3.748715 -0.866608
H 1.303041 -2.973920 2.068913
H -1.301850 3.048284 -1.987727