18
H10 C6 O2
C 1.767788 0.304408 -0.260232
C -0.131107 0.009873 1.085969
O -2.500537 0.413449 -0.199035
C -0.555561 -1.189463 -0.360130
C 0.899300 -0.667557 0.356073
C 0.901523 1.563141 -0.277456
C -1.953576 -0.682278 -0.424610
O -0.061503 1.362601 0.794456
H -2.591353 -1.349149 -0.923989
H 0.467502 1.703205 -1.299298
H -0.341203 -0.078277 2.078554
H 1.370216 -1.593495 0.742742
H 2.216606 0.085143 -1.223630
H 1.440323 2.511550 -0.062478
H -0.739357 -2.129183 0.196716
H 2.652475 0.464745 0.453884
H -0.226136 -1.380948 -1.442815
H -2.615353 0.652213 0.765264