17
H8 C5 N2 O2
C -0.084237 1.257920 -1.065753
C -1.685837 -1.025667 0.206634
O -2.301332 -0.123719 0.702448
N 0.377744 -0.394100 1.580558
C 0.385562 -1.076768 -0.662351
N 0.820590 0.190459 -0.734262
C 1.425072 0.224395 0.740502
C -0.204282 -1.396605 0.619066
O 0.294462 2.489157 -0.418184
H 2.383030 -0.118258 0.635884
H -1.164123 0.988736 -0.797665
H -2.250369 -1.747381 -0.380916
H 1.554449 1.210755 1.372518
H 0.028593 2.362161 0.605154
H -0.189899 -2.404454 1.124416
H 0.535354 -1.837343 -1.442093
H 0.075224 1.400694 -2.085984