15
H7 C5 N1 O2
N 0.658816 -1.026696 1.736534
C 0.599952 -0.421109 0.343914
O 0.461207 1.920967 1.205037
C -0.669028 -0.098536 -1.699002
C -0.552386 1.183171 -0.881888
C 0.178113 1.003527 0.246238
O -0.902818 -2.099334 -0.405212
C -0.343790 -1.143524 -0.572155
H -1.658856 -0.249637 -2.169797
H 0.113472 1.787924 1.949705
H 0.064832 -0.078536 -2.511378
H 1.704647 -0.515641 -0.131610
H 1.237185 -0.549306 2.265694
H 0.139710 -1.812618 1.850616
H -1.031060 2.099344 -1.226677