20
H11 C6 N3
C 1.289941 -0.149637 -0.249027
C 1.239254 -2.115247 1.378034
C 0.168218 1.605861 -1.518978
N -0.159260 -2.040675 -0.690322
C 0.207163 -1.354195 0.431341
C -0.829708 1.076916 -0.579924
N 2.528156 0.022509 -0.491281
C -1.616154 2.008822 0.272813
N 0.431905 0.709746 -0.362146
H -0.810872 -2.813752 -0.372747
H -1.437396 0.228406 -0.877572
H -1.108280 2.961588 0.345469
H -1.823072 1.631588 1.273894
H 2.227027 -2.168483 0.850059
H -2.589033 2.184391 -0.220172
H -0.607072 -1.044531 0.992749
H -0.181126 1.506940 -2.499467
H 0.897562 2.358123 -1.533466
H 1.319963 -1.529431 2.305908
H 0.852740 -3.078976 1.544869