19
H10 C5 N4
C 0.884828 -2.006010 0.555280
C -1.288890 1.726810 0.191947
N -0.048334 2.288575 0.037549
C 0.240654 -0.098815 0.767036
N 0.630126 -2.519321 1.762445
N -0.664154 -0.741148 -1.484105
C -0.440135 0.703494 -0.301543
C -0.255136 0.499145 -1.735406
N 1.370185 -0.767802 0.466981
H 1.441941 -3.047629 1.993644
H 0.800593 -2.578155 -0.417958
H 0.460587 2.446100 0.889716
H 2.325077 -0.525965 0.803591
H -0.859160 1.138326 -2.324479
H -2.060171 2.188725 -0.505513
H -1.801741 1.642654 1.209259
H -1.494857 -1.070195 -1.510291
H 0.010707 0.203019 1.771297
H 0.747857 0.518200 -2.169436