17
H8 C6 O3
O 0.419877 1.637152 -0.490307
C -1.649170 0.519704 -0.422376
C -0.094519 0.622171 1.579666
C 0.020089 0.742006 2.747936
C -0.211394 0.541816 0.099445
O -0.389463 -1.854513 -0.343336
C 0.479103 -0.787441 -0.339489
C 1.655290 -0.813274 -1.124358
O 1.699966 -1.133140 0.200533
H 0.177540 0.901502 3.750334
H 0.264942 1.789324 -1.393214
H -1.681574 0.414517 -1.540097
H -2.237375 -0.315604 0.010552
H 1.844869 -1.601157 -1.830708
H 2.175188 0.120766 -1.347502
H -2.155093 1.487975 -0.123519
H -0.318276 -2.271793 0.566413