15
H6 C6 N1 O1 F1
C 1.186738 -0.843282 -0.246826
C 0.155511 -1.271199 0.718027
C 0.259488 1.458959 -0.523134
N -1.878693 -0.150959 -0.286641
C -1.132217 1.010749 0.069900
C 1.249432 0.694577 -0.487487
F 2.478786 1.156726 -0.683176
C -1.055919 -0.316169 0.877446
O 0.214389 -2.263054 1.336740
H 2.171597 -1.136322 0.210210
H 0.237209 2.426856 -0.965070
H -1.676456 -0.817487 -0.997095
H -1.602495 -0.439965 1.787982
H 1.163467 -1.307034 -1.211019
H -1.770832 1.797554 0.400139