15
H8 C5 N2
C -0.421118 -0.738981 0.909991
C 0.801996 -0.932706 -1.413232
N -0.523711 -1.713452 1.752618
C -0.087112 0.138222 -1.267453
C -0.560353 0.746503 1.088329
N -0.284944 -1.076539 -0.459215
C 0.276446 1.318325 -0.180609
H -0.744736 0.440359 -2.089524
H -0.083830 1.085875 1.949399
H 1.838767 -0.892801 -1.137014
H -1.612055 1.033219 1.003083
H 1.299993 1.309749 -0.043535
H -0.133165 2.307636 -0.493514
H 0.588761 -1.629102 -2.275594
H -0.354941 -1.396317 2.656295