24
H15 C7 N1 O1
C 0.158592 1.687565 1.951437
C 0.364344 -1.395439 -2.198196
C -0.012764 -0.804286 -0.850454
C -1.757503 0.848689 1.110025
C 0.626574 1.561656 0.562192
C -0.133344 -1.954688 0.156611
N 1.790506 0.621142 -1.375310
C 1.005206 0.310609 -0.250820
O -0.661372 1.810468 0.754500
H 1.266922 2.398368 0.307256
H -2.397542 1.401039 1.781112
H -0.984107 -2.595068 -0.178133
H 0.133191 2.636914 2.573694
H 1.067979 -2.213432 -2.160162
H -0.850243 -0.075572 -0.994733
H 0.391166 0.857725 2.540415
H 1.463507 1.345419 -1.857149
H 0.800999 -2.516208 0.112500
H 0.765735 -0.712478 -2.875961
H 1.683299 -0.237613 0.488358
H -0.566517 -1.834152 -2.586608
H -0.313231 -1.656762 1.158962
H -2.309906 0.571842 0.208678
H -1.531487 -0.055727 1.621760