13
H5 C4 N3 O1
N -0.185474 1.300849 -0.908952
C 1.439617 -0.349944 -0.085422
C -2.015320 0.473700 0.172700
O -2.214574 2.409911 -1.268332
C -1.551449 1.458264 -0.688902
N -0.968840 -0.398059 0.507383
C 0.053207 0.238358 -0.204983
N 1.450071 -1.660977 0.490056
H 1.796700 -0.448875 -1.145155
H 2.121651 0.426600 0.426182
H 2.357663 -1.992146 0.829476
H 0.691822 -1.776449 1.233227
H -2.975054 0.318762 0.642745