19
H10 C8 O1
O -2.084620 -1.084750 1.105553
C -1.516663 -0.871193 -0.101598
C -0.233167 0.225430 -2.547017
C 1.379791 0.795671 -0.222314
C -0.248453 -0.307140 -0.041383
C 0.677949 -0.030317 -1.142507
C -0.101387 -0.158670 1.417091
C -1.264435 -0.674526 2.043860
C 0.770584 0.441641 2.378230
H 1.373728 -0.722746 -1.545668
H 0.358791 0.981338 -3.123204
H 0.812050 1.405242 2.584989
H -1.240706 0.543234 -2.425123
H -1.477008 -0.685806 3.033702
H 1.519087 -0.192575 2.786197
H -2.113371 -1.205587 -0.928397
H 1.269213 1.808794 -0.210083
H 2.349412 0.408092 0.116525
H -0.230780 -0.676136 -3.178832