24
H15 C7 N1 O1
C 2.956835 0.758313 0.254290
C -0.713404 -2.345687 -0.230928
C -2.216132 -0.375642 0.499426
C -1.490346 -1.098106 -0.709668
C 0.634642 1.591356 -0.202727
N -1.727829 0.943380 0.569145
C -0.831117 1.263381 -0.551212
C 1.516655 0.419877 0.325573
O -0.736282 -0.098053 -1.316385
H -0.083975 -2.714376 -1.068655
H 1.170916 0.136828 1.369545
H -1.973104 -1.012140 1.431587
H -3.288212 -0.420612 0.256772
H 1.336492 -0.550697 -0.276221
H -2.115964 -1.364472 -1.482109
H 3.190147 1.553239 0.974943
H 1.052136 1.943532 -1.111576
H 0.611339 2.381316 0.565292
H -1.399726 1.278398 1.431500
H -0.109070 -2.172120 0.629117
H 3.605467 -0.134562 0.540622
H -1.201907 2.091650 -1.116742
H 3.254501 1.033585 -0.784175
H -1.442031 -3.108367 0.002571