21
H12 C6 N2 O1
C -0.776932 0.440846 -0.683424
C 1.219638 -1.542646 1.689542
C -0.824450 1.832860 -0.094903
N -2.774793 -1.237587 -0.216439
C 0.608622 -0.369964 1.115228
C 0.498349 -0.408320 -0.422725
O 1.510118 0.224721 -1.036683
C -1.913126 -0.494724 -0.397811
N -0.928559 0.717458 -2.150415
H -1.064029 1.794758 0.977322
H 0.300521 -1.385048 -0.824758
H 0.563848 -2.450618 1.862827
H 2.287852 -0.380900 -1.095050
H 1.140768 0.588629 1.371599
H -0.442979 -0.286197 1.694131
H 0.263867 2.248751 -0.100824
H 1.619074 -1.297535 2.718357
H -1.947037 0.710091 -2.381100
H 2.119193 -1.859271 1.060457
H -1.426666 2.449333 -0.582241
H -0.033290 0.705337 -2.503129