18
H9 C6 N1 O2
C -0.112823 0.619065 1.369538
C 0.927762 -0.778867 -2.354727
N -1.908644 0.175073 -0.177406
C -0.738392 -0.063347 0.271832
O 1.387745 -1.239304 0.639401
C 0.129462 -1.332317 -0.022169
C 1.257279 -1.259717 -0.838594
C -0.691475 1.902738 1.861364
O -1.840928 1.874297 1.979780
H 1.329231 -1.551461 -3.040277
H -0.931894 1.879278 2.920296
H -0.156203 -0.711413 -2.536293
H -2.420791 1.048433 0.169134
H 1.322497 0.183429 -2.548084
H 0.870749 0.449689 1.789235
H 2.097737 -1.724879 -0.909406
H -0.429571 -2.284507 -0.151557
H -0.091705 2.813808 1.577897