23
H14 C7 N2
C -0.786353 0.939424 -1.483358
C 1.363935 1.260863 1.351939
C 1.571857 -0.054543 2.057708
N -0.014765 -0.537745 0.244477
C -2.563821 -0.258037 -0.313788
C 0.671987 0.626804 0.303890
C 0.913902 -1.638215 -0.094466
N 0.609142 1.363484 -1.001814
C -1.095557 -0.367407 -0.833433
H 0.651012 1.991159 1.945194
H -0.807714 0.886112 -2.550184
H -2.953263 -1.230595 -0.396501
H -2.497159 0.106063 0.733553
H 1.298914 0.997544 -1.642397
H -1.073399 -1.205664 -1.423261
H 2.548443 -0.376764 2.062873
H 0.920828 -1.876503 -1.150558
H 2.258490 1.747741 1.053023
H 0.692012 -2.606867 0.432875
H 2.019845 -1.484506 0.057624
H -1.380612 1.785454 -1.153239
H 0.844030 -0.437677 2.610082
H -3.191781 0.369878 -0.810220