15
H6 C4 N4 O1
N -0.146374 1.385061 -2.571435
C 0.433246 -0.389408 1.105632
C -0.184045 0.884152 -1.270995
O -1.671932 -0.526787 0.014843
C -0.810899 -1.227600 0.892831
N 1.321269 -0.790838 2.212131
C 0.664241 0.553317 0.244567
N 0.960714 1.323424 -0.569058
N -1.328852 0.201150 -1.086177
H -0.697808 -2.260691 0.386181
H -1.139829 1.552115 -2.959726
H -1.390303 -1.420107 1.832959
H 1.838024 -1.613492 2.018288
H 0.458337 2.248885 -2.768409
H 1.694203 0.080804 2.518409