16
H9 C6 N1
C 0.155632 -2.252183 1.344636
C -0.406364 -1.265917 0.570170
C -0.873986 1.489182 -0.726034
C 0.972197 0.794565 0.826988
C 0.435944 0.616329 -0.586512
N 0.421842 -3.284545 1.916986
C 0.119942 -0.916636 -0.700386
H 1.140189 0.973601 -1.339140
H -0.906588 1.964217 -1.681699
H -0.886225 2.341561 -0.004983
H 1.064650 0.181667 1.686182
H -1.313604 -0.877906 0.937453
H -0.587852 -1.039362 -1.505515
H -1.819828 0.950212 -0.717553
H 1.474493 1.810613 0.993929
H 1.009548 -1.485425 -1.014532