18
H9 C5 N3 O1
C -1.226693 1.073546 -0.496797
N 1.142075 1.753731 -1.204319
C 0.636542 -0.508110 -1.276428
N 0.212376 -1.410172 0.775340
C 0.583074 -1.550202 -0.392159
C 0.554840 -1.633779 2.008611
C 0.093253 0.751974 -0.974728
O 0.099104 -1.050771 2.899568
N -1.523343 0.614219 0.866295
H -1.351112 2.154143 -0.527624
H 0.884153 -2.592401 -0.639211
H 1.150847 -0.618536 -2.197592
H -1.978274 -0.359605 0.965329
H 1.317755 -2.455444 1.928224
H 0.777862 2.497713 -1.784678
H -0.846269 0.500165 1.597453
H 1.392828 2.161163 -0.309019
H -1.919031 0.672382 -1.238286