23
H14 C9
C 0.050777 1.551325 -0.431272
C -0.218720 -0.479621 0.891176
C -0.023429 0.146930 -0.528418
C 1.223413 -0.562987 -1.128739
C -1.307686 -0.378999 -1.224784
C 1.151464 2.281777 -0.905979
C 0.612954 -0.030045 2.060757
C -1.233621 -1.460774 -0.132540
C -1.556669 -0.964242 1.145560
H 1.174956 -0.969364 2.419703
H 1.259276 -1.657665 -0.934374
H -1.042977 -2.454737 -0.408846
H 0.075949 0.335531 2.895249
H 1.980387 2.402906 -0.256858
H -1.162805 -0.731358 -2.298167
H -1.663919 -1.724129 1.865786
H 2.163579 -0.237387 -0.697152
H 1.148127 2.479831 -1.972082
H 1.331226 0.743491 1.822165
H 1.258437 -0.472032 -2.247183
H -2.129653 0.309039 -1.117176
H -2.374151 -0.238966 1.246039
H -0.716942 2.111483 -0.062864