19
H10 C6 N2 O1
C -1.273287 -0.365200 -0.115527
C 1.166756 0.396562 -0.282070
N 2.013559 0.734959 3.289982
C 1.040276 0.674853 2.639336
O 1.405716 -1.735593 -1.143679
N 0.016621 -0.062892 0.464914
C 1.575616 -0.577435 -1.285417
C -1.419214 -0.535368 -1.609196
C -0.181659 0.605535 1.764290
H -2.401166 -1.011493 -1.812207
H -1.374342 0.319490 -2.279160
H 2.256131 -0.119424 -2.022517
H -1.957572 0.590787 0.109237
H -1.694641 -1.210482 0.407942
H -0.574128 1.647843 1.691054
H -0.686604 -1.408396 -1.956509
H 2.067920 0.611635 0.392237
H -0.883944 0.019149 2.397751
H 0.903946 1.425479 -0.650466