17
H8 C7 O2
O 0.165005 2.003569 -0.648470
C 0.428864 -0.489828 -1.356319
C -0.942626 0.397545 0.631177
C 1.407549 -0.188767 -0.246522
C 1.807636 -1.904439 1.737658
O -1.730823 -0.701383 0.470697
C 0.117784 0.664194 -0.384771
C -2.339243 0.589907 0.176926
C 1.624964 -1.135175 0.797964
H -3.096002 0.921877 0.946626
H 1.996548 -2.469155 2.476779
H -0.639000 0.655107 1.675965
H -0.159142 -1.374893 -1.316176
H 1.001630 2.168763 -1.150545
H -2.609514 0.718818 -0.847569
H 2.315100 0.300739 -0.574807
H 0.651285 -0.156865 -2.388613