21
H12 C7 O2
C 0.556125 -0.860132 0.737427
O -0.099138 -2.858185 -0.237284
C 0.040626 2.808706 1.103560
O -0.010187 0.374963 1.105831
C -1.665826 -1.040025 -0.586938
C 0.493511 -1.222430 -1.708602
C 1.069719 -1.037174 -2.624105
C -0.189848 -1.520689 -0.386450
C 0.752053 1.531672 0.789378
H -1.693318 0.052452 -0.855556
H 1.759418 1.463544 1.282617
H 1.504688 -0.752084 -3.581001
H -0.347332 2.808790 2.119722
H -2.165250 -1.616719 -1.273847
H -2.135590 -1.010495 0.448023
H 0.428575 -1.430459 1.633844
H 0.696773 3.706607 1.032490
H 1.031870 1.575700 -0.294425
H -0.809114 -3.130807 0.345910
H -0.836688 2.958800 0.450208
H 1.618928 -0.802029 0.499163