17
H8 C7 N2
C -1.971192 1.936252 3.109185
C 0.658235 -0.774106 -1.608673
C 1.636726 0.355578 -1.937847
C -0.170896 -1.719345 0.637009
C -1.498074 1.037777 2.371240
N -0.810003 -1.202809 1.793001
C -0.986697 0.050183 1.542696
C 0.033903 -0.768373 -0.246337
N -0.493925 0.384392 0.328591
H 1.062018 -1.702712 -1.767559
H 1.136071 1.404485 -1.970974
H 2.068011 0.219002 -2.914013
H 0.116849 -2.765188 0.599628
H 2.389229 0.378610 -1.228660
H -0.193405 -0.716957 -2.375608
H -2.468784 2.546272 3.788253
H -0.508075 1.336947 -0.119917