16
H9 C4 N1 O2
C -0.081371 0.089626 0.088224
N 0.564927 0.845659 1.187890
C -0.926412 0.904602 -0.820434
O 0.512355 -2.017496 1.164862
C 0.376763 0.484801 -1.288899
O 1.482100 1.377018 -1.397578
C -0.517726 -1.337031 0.412234
H 1.602591 1.719426 -0.532218
H 0.217047 -2.799946 1.413343
H -1.419581 -1.244595 0.991281
H -0.732506 -1.869802 -0.515187
H 0.164022 1.601959 1.580552
H -1.781465 0.403543 -1.266761
H 0.487376 -0.316087 -2.085278
H -1.119925 1.966322 -0.610569
H 1.171786 0.192006 1.678553