25
H16 C8 O1
C -0.496433 1.130375 2.336065
C 0.243715 -0.800618 -3.680029
O -1.465917 1.724393 2.964663
C -1.002017 -1.209266 1.794724
C -0.776517 0.159849 1.218139
C 0.806466 -0.236631 -2.375578
C 0.875987 1.547879 2.780356
C -0.243864 -0.340973 -1.242864
C 0.242982 0.294727 0.060949
H -0.527634 -1.395423 -1.106168
H -0.063984 -1.840721 -3.625955
H 1.328622 2.064251 1.941201
H 0.537103 1.325987 -0.069239
H -1.280829 -1.942260 0.915255
H 1.177811 -0.281989 0.346719
H -1.786865 0.532817 0.819134
H 0.814470 2.192514 3.595380
H -1.742219 -1.203549 2.545841
H 1.696306 -0.821192 -2.042766
H 1.037875 -0.679092 -4.425372
H 1.145783 0.796887 -2.429600
H -0.650565 -0.218416 -3.961092
H -0.103261 -1.640276 2.173954
H 1.376912 0.630826 2.981615
H -1.143904 0.209915 -1.515335