18
H9 C6 N1 O2
C -0.182408 -0.183298 0.879784
N -0.867125 -0.939970 1.867603
C -1.117601 0.229980 -0.036936
O 1.323506 -0.800844 -0.955885
O -1.369026 0.923058 -1.159939
C 0.861137 0.319272 -1.261147
C -0.490376 0.513218 2.124798
C -0.480820 0.189863 -2.049667
C 1.115012 -0.995127 0.457256
H 0.329653 0.625474 2.858764
H -2.192504 -0.333792 0.151130
H 1.991381 -0.772932 0.995957
H -0.719619 -0.933048 -2.127002
H 1.361640 1.264325 -0.009451
H 1.385209 1.198493 -1.683368
H 0.859087 -2.041910 0.701543
H -1.311312 1.111239 2.256903
H -0.495845 0.625988 -3.010349