13
H4 C4 N2 O3
O 1.380048 -1.376408 -1.316144
C -0.433030 0.418729 1.112282
C -0.800415 0.763843 -1.313152
O -1.713486 1.585482 -0.915770
C 0.875411 -0.824551 -0.317983
N 0.256894 -0.234731 1.926837
C 1.205811 -1.126326 1.131086
N -0.160009 0.130452 -0.246195
O -0.551677 0.568621 -2.510137
H 2.216961 -0.844474 1.408344
H 1.108499 -2.183661 1.406268
H -2.164409 2.004905 -1.665354
H -1.220597 1.118113 1.299931