21
H12 C8 O1
C -0.736852 0.898094 1.105721
C 0.295972 0.014172 -0.458392
C -2.194822 0.446876 -1.136369
C 0.616627 -1.486633 -0.034663
C -0.921141 0.881470 -0.569248
C 1.246624 -0.796747 -1.269885
C 1.122707 -1.133475 1.241688
C 0.781756 0.402249 0.925056
O 1.648924 1.406238 1.275526
H -2.973514 1.134896 -0.926779
H 0.027666 -2.336120 -0.252098
H -2.414261 -0.585371 -0.877515
H -0.878540 1.860801 1.631481
H -2.023254 0.528782 -2.244959
H 0.526667 -1.516638 2.094638
H -0.614301 1.913267 -0.842271
H 0.914561 -1.181157 -2.205822
H -1.405510 0.176424 1.543926
H 2.482085 1.160741 0.824811
H 2.194251 -1.251200 1.464220
H 2.304370 -0.536645 -1.289060