12
H3 C5 N3 O1
N -0.515449 -0.081621 -2.419494
C 0.538516 0.848240 0.849160
O -0.803426 -2.289008 1.420290
N -0.843923 -1.131073 -1.576109
C 0.264497 -0.155131 1.681101
C -0.391416 -1.271712 0.987423
C -0.391550 -0.808634 -0.430546
C 0.065109 0.873676 -1.724568
N 0.170613 0.505841 -0.464256
H 0.498693 -0.155766 2.768621
H 0.413192 1.827951 -2.082702
H 0.995178 1.837239 0.991067