18
H9 C6 N1 O2
C 0.788797 1.610553 -1.698101
C 1.230534 -0.221288 0.000390
C -1.240857 -0.698300 0.274331
C 0.166466 -0.771225 0.937287
O 0.467859 -1.922408 1.655142
C -0.962159 -0.060803 -1.071445
C -0.930630 0.198573 1.451584
O 1.924153 2.072118 -1.620117
N 0.462135 0.477446 -0.983126
H -0.699745 1.265606 1.363620
H 1.100855 -1.742422 2.400959
H 1.791467 -1.056867 -0.452362
H -1.027251 -0.818230 -1.867318
H -1.685935 0.738401 -1.306517
H 1.925059 0.484253 0.432036
H -0.008129 2.004786 -2.280032
H -1.934526 -1.498044 0.372754
H -1.368093 -0.062154 2.390940