14
H5 C4 N3 O2
C -0.380637 -0.450751 -0.006954
N 0.539379 0.712040 0.032443
C 1.232591 -2.037087 0.739587
O 2.153234 -1.269575 0.918195
C -0.201529 1.787814 -0.374269
N -0.023540 -1.714967 0.201597
O 0.434625 2.972494 -0.423179
C -1.543125 0.189649 -0.506087
N -1.439689 1.529054 -0.684340
H -0.752842 -2.385665 0.207521
H 1.230170 -3.093049 0.916804
H 1.426491 0.564610 0.352680
H -2.468867 -0.409431 -0.655920
H -0.206277 3.604832 -0.718054