15
H8 C4 O3
O 1.518081 -1.006452 0.229931
C -0.262905 0.682712 -0.480908
C -0.784857 -0.104452 -1.625658
C 0.316996 -0.266184 0.528449
O -1.198569 1.476010 0.125473
C 1.557881 0.059435 1.290406
O -0.631627 -1.052581 1.184350
H 1.723845 -0.347736 2.271277
H 0.538610 1.408905 -0.857499
H -0.218755 -1.830065 1.475899
H -1.627884 -0.774247 -1.294380
H -0.043373 -0.745733 -2.159652
H -1.787351 0.964203 0.682895
H -1.267363 0.618018 -2.390422
H 2.167298 0.918173 1.019859