18
H9 C7 N1 O1
C -0.129462 -1.643803 0.662501
C 1.262824 -1.000666 0.445253
N 0.910289 1.580749 -0.138314
C -0.093396 1.657865 0.846373
C 1.003954 0.155924 -0.589544
O -0.348721 -2.651777 1.366856
C -0.455879 0.069561 -1.014927
C -0.556023 1.534838 -0.583928
C -1.196485 -0.992899 -0.286967
H -2.036880 -0.650184 0.332523
H -0.578205 0.005882 -2.123463
H -1.601854 -1.750322 -0.944515
H 1.946111 -1.746101 0.058122
H -1.005837 2.339776 -1.010266
H -0.343570 0.878809 1.604246
H -0.133884 2.699137 1.376185
H 1.758765 0.093708 -1.384688
H 1.598249 -0.580487 1.384573