17
H8 C5 O4
O -0.989185 -0.145161 -2.366786
C 0.380457 -0.887518 0.991171
C -0.300576 -1.208623 -0.474835
O -1.238880 -2.236269 -0.438301
C -0.879532 -0.046282 -1.106665
O -0.435656 1.218659 2.013429
C 0.490998 0.670492 1.061419
O 1.420479 0.786618 -1.116142
C 0.346168 1.078851 -0.390050
H 1.369394 -1.334225 1.092156
H 1.457899 0.909414 1.393675
H -0.254786 -1.283851 1.710668
H 1.022540 0.687172 -2.048356
H 0.018602 2.143739 -0.486819
H 0.519521 -1.582218 -1.102959
H -1.686132 0.469870 -0.567471
H -1.241292 0.759351 1.835884