23
H14 C9
C 1.110813 1.142802 1.401119
C -1.058805 -1.348355 0.527165
C 0.917965 0.813120 -0.054077
C 0.064868 -0.406882 -0.210898
C -1.130810 -0.403706 -1.183772
C 0.731074 -1.963765 0.534966
C 0.422641 2.079316 -0.933659
C -0.088078 -1.706512 -0.768978
C -2.079618 -0.342825 -0.146129
H 0.259230 1.771902 -1.939146
H 0.159637 1.393379 1.978414
H -1.547602 -2.157517 1.025904
H -3.089824 -0.675326 -0.322958
H 1.822721 2.031424 1.568721
H 1.566094 0.295995 1.961875
H 0.399115 -2.178768 -1.690917
H 0.588750 -2.736847 1.296820
H -2.225501 0.575273 0.528125
H 1.933568 0.497530 -0.514181
H 1.873153 -1.808833 0.460053
H -0.536670 2.370550 -0.517803
H -1.260336 -0.106584 -2.152914
H 1.167614 2.864644 -0.847751