23
H14 C8 O1
C -0.948359 0.377172 -0.235638
C 1.233106 0.693299 0.197992
C 0.319488 0.856140 -1.007803
C 0.986314 -0.740565 0.663777
C -0.744745 1.382032 1.005445
O 0.634699 1.648417 1.207664
C -0.471664 -1.018398 0.156138
C 2.060278 -1.743862 0.214569
C -2.262198 0.531583 -0.978316
H -3.075462 0.119688 -0.347639
H -2.231239 -0.126561 -1.824960
H 0.587295 0.242936 -1.878587
H -1.056070 -1.415515 0.971726
H 0.281437 1.921894 -1.299234
H -1.336385 2.295800 0.868292
H -1.181203 0.849607 1.921323
H -0.497319 -1.662513 -0.704945
H 1.730866 -2.772768 0.468496
H 2.255499 0.970216 0.153497
H 2.197865 -1.633004 -0.841007
H 2.977985 -1.553495 0.728691
H -2.506890 1.545972 -1.191093
H 1.046715 -0.768063 1.751584