18
H9 C7 N1 O1
O -1.232626 1.314907 0.435571
C 0.367191 0.039021 -1.570743
C -0.154422 -1.303891 -0.911783
C 1.260937 0.789440 -0.639848
N -1.955104 -2.122159 0.461359
C -0.142207 1.028256 1.355428
C 1.257972 0.595740 0.807084
C -1.337847 0.100135 1.054194
C -1.161868 -1.160705 0.166034
H 1.457320 1.768029 -0.989203
H 0.721546 -1.832222 -0.521454
H -0.556362 0.568012 -1.838561
H -2.095690 0.026383 1.798979
H -0.593366 -1.906955 -1.660502
H 2.053433 1.156314 1.221653
H 1.404355 -0.445216 1.092273
H -0.175139 1.654455 2.217316
H 0.881857 -0.269554 -2.477822