14
H5 C6 N3
C -2.178076 -0.018556 -0.120210
N 2.081152 4.100167 -0.563882
C -0.810628 -0.309100 -0.403719
C 0.676978 1.894755 -0.532332
C 1.470998 3.102315 -0.523307
C -0.222133 -1.302646 0.734476
C -0.003193 0.929409 -0.473175
N 1.169074 -1.697581 0.587502
N -3.339838 0.260477 0.126809
H -0.288072 -0.819932 1.667834
H -0.884467 -2.176873 0.697855
H 1.727405 -0.966743 0.490003
H -0.665563 -0.814223 -1.389129
H 1.266330 -2.181429 -0.298722