16
H8 C5 O3
O -0.621616 2.538503 -0.475765
C 0.824439 -1.570415 -0.375207
C 0.314968 -0.944754 0.866529
C -0.608439 0.287361 0.701303
C 0.197701 1.556921 0.216951
C 1.140106 -2.304198 -1.241420
O -0.131156 -0.138452 -1.393131
O -1.707199 -0.009956 -0.014413
H -1.011302 0.520551 1.716926
H -1.279838 -0.157595 -1.000806
H 1.067803 1.318671 -0.354090
H -0.102682 -1.666345 1.452544
H 1.282059 -0.589451 1.394334
H 1.458995 -2.869728 -1.957008
H 0.541763 2.074648 1.182870
H -1.365600 1.954216 -0.719633