14
H6 C6 N2
C -0.993957 -0.691798 -1.269887
C -0.288721 0.548649 -1.242237
C -0.408945 0.509250 2.144433
C -0.126327 0.160834 0.857617
C 0.859337 0.681609 -0.205194
N -1.273070 0.163977 -0.165024
C 1.135813 -0.625371 0.534532
N -0.649053 0.785861 3.270334
H -0.600836 1.435218 -1.855720
H 1.139963 -1.507144 -0.059997
H 1.553420 1.508687 -0.127439
H -1.782644 -0.743078 -1.967716
H 1.888576 -0.548861 1.258003
H -0.453539 -1.677824 -1.171718