15
H6 C5 N2 O2
C 0.476305 0.560581 -0.938055
C 0.704951 -0.829345 -0.300600
O 0.764325 -2.045185 -0.798029
C -0.030659 -0.330397 0.915139
C 0.900960 0.875525 0.533714
C -1.773269 0.597390 -0.370776
O 1.930904 -0.232106 0.378077
N -0.915540 0.963053 -1.276195
N -1.467413 -0.135088 0.768337
H 1.632867 -2.257229 -1.165071
H 0.221779 -0.753537 1.905312
H -2.885282 0.896357 -0.571179
H 1.199305 0.861510 -1.686418
H 1.300652 1.723359 1.021350
H -2.059886 0.105128 1.584377