17
H8 C8 O1
C -0.121916 0.580974 0.527974
C -1.254328 1.079559 1.368558
C -0.334392 -1.886210 -0.468648
C -0.223805 -0.740575 -0.027051
C 2.067952 1.203409 -0.100942
O 1.179976 0.916219 0.934115
C -0.450307 -3.161422 -0.944720
C -0.577048 -4.368702 -1.329534
C -1.109720 1.585011 0.031788
H -0.663569 2.695091 -0.101466
H -1.759225 1.385145 -0.806152
H 1.758384 2.108877 -0.728772
H -0.958480 1.723223 2.228936
H -2.080384 0.395685 1.542542
H -0.697500 -5.388890 -1.680364
H 2.226409 0.378943 -0.811766
H 2.997987 1.493679 0.365510