13
H4 C3 N6
N -1.133834 -0.080735 1.816584
C 0.107564 -1.218655 0.087875
N 1.259164 1.842841 -1.205865
C -0.670969 1.585209 0.292033
N 0.652621 -0.300601 -0.731402
C 0.472837 1.102623 -0.589431
N -1.360462 1.081794 1.196142
N 0.346197 -2.511130 -0.287797
N -0.563821 -1.117582 1.243266
H -0.909838 2.658427 0.093381
H 1.056450 2.847482 -1.027188
H -0.063796 -3.228466 0.283266
H 0.807878 -2.661205 -1.170863