16
H7 C4 N3 O2
C 0.183068 1.052567 -2.810585
O 0.906462 1.116778 -3.828450
C 0.683454 0.414551 -1.568683
C 0.177134 -0.225084 0.661048
O -1.097024 1.554155 -2.767625
N -0.281764 0.264148 -0.474477
C 0.054330 -1.142673 2.921095
N 1.715043 -0.118498 -1.566725
N -0.525652 -0.473490 1.794136
H -1.141366 0.807382 -0.620226
H 0.525339 -2.127988 2.622485
H -1.188085 1.929685 -3.636780
H -0.681463 -1.291864 3.673395
H -1.451494 -0.778717 1.543106
H 0.901453 -0.525948 3.331952
H 1.220557 -0.455009 0.726302