18
H9 C5 N1 O3
C 0.293111 0.192323 -0.641382
C 3.452298 0.384415 -0.349088
O 2.401100 0.637852 0.513695
C -1.845357 -0.382913 0.602096
C -3.187277 0.128339 0.332603
O 4.457579 1.047137 -0.368978
O -4.219273 -0.395901 0.804193
C 1.251631 -0.228980 0.473541
N -1.053521 -0.453410 -0.625095
H -3.277957 0.943821 -0.355895
H 1.526798 -1.272162 0.292331
H -1.815764 -1.352131 1.105557
H 3.331754 -0.583579 -0.823396
H -1.446612 0.405923 1.331996
H 0.186906 1.305656 -0.634812
H -1.588637 -0.211792 -1.407952
H 0.785888 -0.119780 1.405972
H 0.747333 -0.044851 -1.655363