25
H16 C9
C -0.333004 1.185579 1.242269
C -1.996217 0.064213 -1.206515
C 1.434629 -0.570012 0.372711
C 1.323820 -1.094524 -1.085923
C 0.613743 0.051981 -1.778765
C -0.063046 -0.157635 0.577039
C -0.604135 -0.349997 -0.854368
C 0.409645 1.467320 2.521274
C -0.070063 -1.792292 -1.058410
H 0.051892 2.376883 3.026880
H 1.491558 1.555227 2.337355
H -2.811491 -0.431371 -0.481312
H 2.103786 0.266818 0.380887
H 0.288536 0.673440 3.235667
H -0.102067 2.024712 0.559748
H 0.444747 -0.023781 -2.794324
H 2.173738 -1.562185 -1.547689
H 1.808261 -1.297860 1.078217
H 0.973932 1.137260 -1.562126
H -0.552439 -0.938263 1.286202
H -2.315014 -0.164891 -2.233669
H -2.213403 1.147741 -1.046995
H -0.333476 -2.612043 -0.334918
H -1.409794 1.216500 1.452233
H -0.314130 -2.172818 -2.085451