21
H12 C8 O1
C 0.938823 -0.615242 -0.383439
O -2.226465 1.580358 -0.735801
C 0.281334 -2.000905 -0.964477
C 1.414076 -0.882086 1.019477
C -0.205808 0.400929 -0.771438
C 0.526235 1.346433 -0.233584
C 0.147027 2.427177 2.065411
C 0.269699 1.937666 0.990882
C -1.746772 0.286173 -0.681824
H 0.577760 -0.853778 1.729148
H 0.846982 1.835602 -1.092852
H -1.929078 -0.335894 0.227368
H -0.499851 -2.318683 -0.372591
H -0.012567 -1.809333 -1.966541
H 1.802804 -0.377886 -1.022549
H 1.939650 -1.808353 1.065993
H -3.248120 1.483466 -0.708519
H 2.080389 -0.082228 1.426614
H -0.063710 2.839106 2.986465
H 1.089173 -2.690207 -1.022395
H -1.981586 -0.362282 -1.555371