21
H12 C9
C 1.281767 -0.143270 1.452671
C 0.260786 1.364014 -0.423027
C -0.447465 -0.717861 -1.148171
C 1.479572 0.540348 0.166244
C 0.187068 -1.201096 1.381933
C -1.086713 0.818601 0.037147
C 0.831187 0.174305 -1.201940
C -1.573914 0.314048 -1.335015
C -0.817834 -0.728507 0.381751
H -0.360025 -1.652187 -1.704751
H 0.420843 2.336775 -0.746159
H 0.680977 -2.111909 0.978858
H -1.849204 -1.263267 0.541517
H -0.276826 -1.360124 2.375213
H -1.708814 1.443144 0.669877
H 0.966554 0.672705 2.222722
H -1.498412 0.969818 -2.192428
H 2.429938 1.090872 0.028457
H -2.574010 -0.151391 -1.253654
H 1.400295 0.215834 -2.075838
H 2.254218 -0.610860 1.844598