22
H13 C8 N1
C -2.706922 0.039753 1.514524
C 0.827714 -0.367213 0.416507
C 2.841162 -0.641598 -1.119975
C -0.386202 0.833000 -1.128029
C -0.153817 0.668380 0.229890
C -1.507500 0.851124 2.166998
C 1.360843 -0.861461 -0.899272
C 0.442677 -0.083393 -1.987145
N -0.742468 1.398064 1.102640
H -1.950557 1.665978 2.782297
H 1.106423 0.447430 -2.652323
H -2.363207 -0.887842 1.006515
H 3.082906 0.392462 -1.057283
H 1.158951 -0.707030 1.332225
H -0.173893 -0.718908 -2.589021
H -3.273214 0.576127 0.790852
H -1.009642 1.570679 -1.551947
H 3.465055 -1.207157 -0.430467
H -1.000146 0.249685 2.801128
H 3.207957 -1.008982 -2.170558
H -3.362693 -0.299914 2.367851
H 1.136545 -1.909182 -0.925400