19
H10 C7 O2
O -0.141319 -0.586478 -2.523355
C -0.518550 -1.629224 -0.316685
C 0.363446 0.972456 0.480927
C 1.108750 -0.165194 -0.232355
C -0.114672 0.037414 1.609823
O 1.004131 2.198311 0.827394
C -0.224532 -0.355732 -1.127702
C -0.679251 0.993257 -0.639702
C 0.422969 -1.132415 0.786681
H 0.525232 2.721535 1.358807
H -1.760369 1.103292 -0.420502
H -0.233426 -2.469615 -0.802088
H 0.470719 0.182467 2.524930
H 0.914372 -1.960298 1.381994
H 2.171471 -0.222531 -0.502843
H -0.092562 0.214704 -2.922406
H -0.438482 1.778266 -1.363463
H -1.148945 0.016904 1.881640
H -1.628927 -1.697137 -0.001115