18
H9 C7 N1 O1
C 0.248781 0.850829 -0.746188
C -0.861583 -1.136225 0.548566
C 0.455126 -1.675053 1.099762
C 0.048981 -0.594799 -0.647497
C -0.354607 -1.187284 -1.966097
O 1.247280 -1.274623 -0.088539
C -0.614324 1.891999 0.018025
C 0.874657 1.670224 0.346383
N -0.705020 -1.579328 -2.951821
H 1.613300 2.417802 0.024670
H -0.862223 2.828314 -0.545027
H -1.474448 -2.015078 0.243982
H 0.562190 -2.670049 1.329686
H -1.342871 -0.457436 1.108071
H 0.581650 1.192824 -1.781237
H 1.112162 1.209859 1.322693
H 0.800092 -1.047142 2.004117
H -1.329143 1.575167 0.680448