22
H13 C8 N1
C 0.866249 -0.733370 -0.246286
C 0.103762 -1.240025 0.990242
C 0.142526 1.325797 -1.713576
C -0.035191 1.119169 0.882938
C -1.452500 -0.317414 -0.546612
C -0.145458 0.420480 -0.533100
C 1.854868 -0.163031 0.708492
N 0.703948 0.059241 1.615462
C -1.397318 -1.239870 0.692801
H -1.005384 1.299145 1.325786
H 2.492690 0.757257 0.453737
H -1.618861 -0.859663 -1.464511
H 2.606697 -0.844424 1.095744
H 1.156062 -1.361614 -1.083416
H -2.321621 0.335047 -0.473386
H -0.644732 2.059889 -1.886935
H -1.948365 -0.900444 1.585729
H 0.183023 0.726381 -2.638734
H 1.120059 1.896861 -1.618500
H 0.475783 -2.071279 1.488237
H 0.565258 2.047581 0.881126
H -1.701489 -2.315715 0.484793