22
H13 C7 N1 O1
C 1.188050 1.279711 -0.650271
C 0.249350 0.153358 1.562938
N 0.080334 -1.347797 1.339288
C -1.281611 0.802742 -0.428375
C 0.085862 0.395903 -0.012013
C 1.112765 1.281523 -2.197375
O -1.659604 2.035538 -0.239788
C -1.201974 -1.916241 1.646321
C 0.287660 -1.185687 -0.128206
H -1.420935 -1.866737 2.712742
H -1.283032 -2.970626 1.340929
H 1.158782 0.465912 1.966066
H -2.113153 -1.426405 1.155021
H 1.050139 2.264843 -0.247199
H -0.672042 0.543442 2.106855
H 0.189359 1.636208 -2.506606
H 2.156674 0.832790 -0.314374
H 1.262484 -1.480873 -0.458560
H 1.316435 0.266637 -2.562134
H -1.977179 0.052490 -0.779025
H -0.481128 -1.708733 -0.735984
H 1.952772 1.891995 -2.570270