19
H11 C5 N1 O2
C 1.518671 1.689092 -1.268856
N -0.617759 0.285662 0.917921
C -1.313512 -0.554067 0.140309
C 1.809297 0.386240 -0.748442
O 0.791494 -0.617394 -0.974601
C 0.154600 -1.194634 0.263870
O 1.780353 1.350652 0.250130
C -2.518316 -1.030312 0.952394
H 2.776916 0.020941 -0.981150
H 0.905882 -1.298517 0.992829
H -3.256398 -1.623659 0.281302
H -1.493226 -0.390412 -0.856419
H 0.453209 1.870696 -1.607340
H 2.226094 2.160244 -1.832182
H -0.037716 0.941732 0.819518
H 2.116409 2.173520 0.632280
H -3.095550 -0.203590 1.358518
H -2.184328 -1.657727 1.756657
H -0.016125 -2.308448 -0.096728