20
H11 C8 N1
C -0.650415 0.883277 0.702170
C 0.975564 -0.100244 1.949178
C -1.350640 0.361867 -1.964224
C -0.574463 0.198568 -0.731715
C 0.970836 0.922789 0.818383
C -0.234361 -1.177937 -0.036037
C 1.051883 0.279741 -0.586320
N 1.131512 -1.172758 -0.540643
C -0.450228 -0.474407 1.422166
H -2.380749 0.034469 -1.800788
H 0.902007 0.361852 2.897050
H 1.539117 1.862466 0.905771
H -0.890406 -0.288332 -2.781984
H 1.691538 0.750149 -1.379326
H -0.835176 -2.093354 -0.144315
H -1.390572 1.385239 -2.296430
H 1.760809 -0.840063 1.884895
H 1.201156 -1.618544 -1.393247
H -1.319907 1.685379 0.990118
H -1.147508 -0.960145 2.085310