15
H6 C5 O4
O 2.156219 -0.154189 0.714532
C 1.034483 0.892987 2.585693
C -0.815872 -0.191157 -1.720994
C 1.106171 0.234264 1.188810
O -1.189941 0.557343 0.950287
C -1.004805 -1.317697 -2.731544
O -0.078341 -0.672097 -0.576296
C -0.243290 0.090410 0.521027
O -1.435076 -1.074164 -3.846391
H 0.519333 1.846270 2.610086
H -0.702598 -2.291059 -2.369683
H -1.745652 0.221481 -1.416144
H -0.187426 0.617111 -2.171711
H 2.063557 1.026835 2.970161
H 0.523234 0.213668 3.292168