21
H12 C8 O1
O -1.445907 -1.839835 -1.368694
C 0.616310 -0.620804 -1.518116
C 1.103089 0.527075 -0.574323
C 1.216756 0.680873 2.076749
C 0.455249 0.303721 0.814653
C -0.346276 -0.957726 0.678056
C -1.355093 0.627822 -0.883063
C -0.194402 1.277854 -0.157354
C -0.769716 -0.790360 -0.804840
H 0.211484 -1.889904 0.829344
H -2.259848 0.725433 -0.265348
H 0.545787 -0.315960 -2.568816
H 1.205440 -1.476122 -1.384450
H -0.108072 2.384948 0.080235
H 1.934603 -0.104328 2.338050
H 1.812213 1.584923 1.950281
H -2.372871 -1.884078 -0.966364
H -1.267406 -0.952985 1.384029
H 0.493280 0.761015 2.893940
H -1.539692 0.953590 -1.865944
H 2.065065 1.004820 -0.688050