16
H8 C6 O2
C -0.246025 0.445155 -0.106528
O 1.322442 -0.535524 -1.589836
C -0.757157 1.448794 0.582495
C -2.547345 0.434869 -0.268238
C -1.478963 -0.223506 -0.645526
C 1.167532 0.057178 -0.281864
O -2.153881 1.482022 0.496452
C 1.701030 -0.808123 0.829056
H 1.781862 0.944419 -0.317466
H -1.500651 -1.161801 -1.255898
H 1.199122 -1.777743 0.935463
H 2.756170 -1.117851 0.651180
H -0.314811 2.272412 1.124119
H 1.046065 -1.438501 -1.532550
H 1.606647 -0.323607 1.775126
H -3.581970 0.301825 -0.396023