17
H8 C7 N2
C 0.476695 0.254821 0.984223
C -1.078558 -0.107078 1.291153
N -0.991741 3.270180 -0.524772
C -0.127226 0.863231 -0.361096
C 0.436981 0.121320 -1.560158
C -0.585440 2.218652 -0.403603
N -1.249018 -0.259162 -0.211997
C 0.953081 -1.103300 0.446794
C -0.004274 -1.120511 -0.728437
H 2.026588 -1.081423 0.164668
H 0.842014 -1.888361 1.190408
H -0.162153 0.203886 -2.518106
H -0.310956 -2.134478 -1.191119
H -1.666199 0.705136 1.670346
H 1.074045 0.863722 1.646034
H -1.191971 -1.036477 1.886422
H 1.558143 0.229834 -1.780747