23
H14 C8 O1
C -0.895241 0.097729 1.644934
C 0.246538 -1.923417 0.472395
C 0.616140 1.771591 -1.058275
C 0.722571 0.282026 -0.831594
C 1.692024 1.206149 -0.117737
C -0.299292 -0.663882 -0.238711
O -0.594461 2.395353 -0.760047
C 0.757044 -1.293132 0.972676
C -1.607513 -0.881952 -1.046243
H 1.372390 -2.226363 -0.234505
H -2.307227 -1.588837 -0.586304
H -0.526070 -0.287238 2.625752
H -0.406853 -2.719613 0.734241
H -0.589313 2.556257 0.220699
H 1.595272 1.375412 0.955051
H -2.114026 0.031645 -1.201982
H 1.649585 -0.983338 1.452356
H 2.687812 1.349021 -0.492053
H -0.831045 1.148784 1.520752
H 1.148588 -0.225966 -1.693581
H -1.951745 -0.240905 1.652820
H -1.297371 -1.316836 -1.990204
H 0.932211 2.137535 -2.000412