18
H10 C5 N2 O1
C -1.499007 2.719318 -0.806999
C 0.011449 -0.476989 0.369599
N 1.172058 0.331687 2.544305
C 0.633310 0.038052 1.602684
O -1.173774 1.539442 0.057529
N 0.870150 -1.458067 -0.241792
C -0.265943 0.691254 -0.580493
C 1.069027 -2.691145 0.461954
H 0.083579 -3.186174 0.583409
H 0.662849 1.193238 -0.898564
H -1.968954 2.361176 -1.722912
H -0.772017 0.306117 -1.521583
H 1.698603 -3.378479 -0.108663
H 1.785894 -1.105118 -0.474685
H 1.506544 -2.615309 1.501133
H -0.990194 -0.929822 0.654139
H -2.162392 3.353814 -0.288522
H -0.661193 3.306985 -1.130514