18
H9 C6 N1 O2
C 1.579185 0.936679 2.209678
C 0.883575 -0.145645 1.429723
C -1.163573 -0.129801 -2.080050
O 1.447156 -0.305723 0.172865
C -0.462181 0.164356 0.930477
N -0.201239 0.823278 -1.527126
C -0.463293 -1.275231 -1.274637
C 0.121105 -0.118351 -0.417144
O 1.064712 1.734159 2.943294
H 0.347692 -1.693618 -1.796445
H 2.655570 1.018586 2.017341
H -0.794552 1.177289 1.125720
H -1.089918 -0.211781 -3.198826
H -2.185963 0.048577 -1.746441
H -0.408469 1.677360 -1.344930
H 1.005045 -1.128729 2.080789
H -1.234423 -0.541791 1.299979
H -1.100453 -2.029628 -0.824276