19
H10 C6 O3
C 1.625963 -0.555186 0.832776
C 0.252547 -0.159492 0.303161
O -2.201857 1.272920 -2.643476
C -1.375661 0.886644 -1.934371
C -0.806146 -0.274199 1.430894
C 0.316723 1.315976 -0.240702
O -0.873254 1.693389 -0.905574
C -0.295458 -1.046365 -0.825459
O -0.716269 -0.336026 -2.018816
H 1.701303 -1.623399 0.925624
H 1.812267 -0.130969 1.795858
H 0.571400 -1.697695 -1.188224
H 1.198994 1.359482 -0.943462
H 2.479807 -0.164851 0.176068
H -1.090275 -1.716637 -0.590796
H -0.506953 0.359499 2.261115
H -0.871939 -1.227683 1.839439
H 0.563982 1.918751 0.549693
H -1.785152 0.125832 1.176290