17
H8 C5 N2 O2
C -1.241002 -0.773954 0.825440
C 1.934179 -0.108081 -0.237241
C 0.583518 0.538964 0.188675
O 1.442367 -0.626363 -1.483423
C -0.916929 -1.137194 -0.556505
O 3.040144 -0.231173 0.110590
N 0.576493 1.959258 0.314397
C 0.078245 -0.135146 -1.105501
N -0.014024 -0.139088 1.335441
H -0.031791 0.444050 2.145354
H -0.369789 2.309909 0.285292
H 1.163290 2.404862 -0.338582
H -1.796125 -1.274322 -1.239567
H -1.557443 -1.579844 1.474271
H -0.360955 0.517856 -1.929096
H -2.087227 -0.017983 0.837606
H -0.442923 -2.151753 -0.627174