21
H12 C7 O2
C -0.577759 -0.066016 -0.948353
C 0.034686 0.186975 0.498387
O 1.318445 0.461975 0.547345
C 2.125468 -0.348540 1.374067
C -0.822793 1.079877 1.476330
C -0.506916 -1.214110 0.135784
O -2.880580 -0.006987 -1.488886
C -1.831630 0.581709 -1.314206
C 0.353655 -0.214104 -2.140096
H 1.252560 -0.712899 -1.851213
H 0.641368 0.833857 -2.510146
H -1.449578 -1.522778 0.569570
H -0.649864 2.114010 1.215663
H -0.465218 0.872706 2.468215
H 3.187246 -0.025599 1.350441
H 2.191664 -1.423223 1.096977
H -1.898074 0.800164 1.409624
H 1.756678 -0.362710 2.478314
H -1.857275 1.695284 -1.326105
H -0.120797 -0.759840 -2.944555
H 0.198722 -1.969757 -0.097156