21
H12 C7 O2
C -0.888122 0.516520 -0.920488
C 0.217444 -0.906376 1.659760
C -1.324314 0.186387 -2.318382
O 0.115812 -1.669447 -0.543958
C 1.094163 1.513663 1.236558
C 0.401820 -0.212394 -0.597122
C 1.029719 0.024719 0.758181
O -0.639173 -3.118492 1.069385
C -0.129812 -2.056578 0.725014
H 1.674296 2.091849 0.497162
H 0.100148 1.984167 1.394407
H -2.242607 0.703968 -2.612727
H 1.191612 -0.093834 -1.382332
H 0.748330 -1.284873 2.586643
H -1.637194 0.365557 -0.219105
H 1.673263 1.585042 2.189468
H -1.556944 -0.913692 -2.362775
H -0.591500 0.404388 -3.076151
H 2.077487 -0.324416 0.779804
H -0.613989 1.623710 -0.964855
H -0.700426 -0.419836 2.101492