23
H14 C7 O2
C 0.465353 -1.138433 0.057856
C 0.834993 -1.992586 -1.171284
C 1.768028 -0.598768 0.623296
C -0.185724 0.319158 -0.057429
C 0.921949 1.117368 0.619779
O 2.290670 0.506854 0.085295
C -1.520938 0.487274 0.600597
C -2.224638 1.771276 0.124479
O -0.313091 -2.577005 -1.765166
H 1.352841 -1.307075 -1.902812
H -3.220637 1.929203 0.628569
H 2.340230 -1.135456 1.455261
H 1.065352 2.178916 0.384277
H 1.524732 -2.697510 -0.975929
H -1.659135 2.648999 0.319618
H 3.077056 0.726119 0.445268
H -2.207770 -0.365659 0.407392
H 0.744412 1.128559 1.719159
H -2.428172 1.711325 -0.935434
H -0.092272 -1.734247 0.821438
H -0.194324 0.514142 -1.123495
H -1.398884 0.520370 1.704033
H -0.940051 -2.012846 -2.064791