18
H9 C6 N1 O2
C 0.122515 1.542357 -1.185298
C -0.124962 -0.213693 0.727992
N 0.532150 -2.522340 0.464919
O 0.173728 -0.261146 2.090545
C 0.616319 1.005217 0.109287
C 1.194947 0.514861 -1.169915
O 0.956549 -0.908915 -1.189158
C 0.544897 -1.334147 0.009508
C -1.664923 -0.311412 0.438393
H 1.187948 1.659192 0.727175
H 0.985524 -3.212824 -0.159614
H 0.549870 2.504570 -1.522135
H -2.024611 -1.187047 0.972391
H 2.178517 0.687061 -1.570364
H -1.871158 -0.352728 -0.607847
H -0.838572 1.346074 -1.502671
H -2.177082 0.564865 0.849908
H -0.341691 0.480036 2.516840