16
H7 C7 N1 O1
C 0.263598 -0.575787 -1.526455
C 0.054159 0.234558 1.409348
C 0.420284 1.222382 0.370677
C -1.033847 1.012202 0.679431
C -0.909039 -0.887016 -0.518288
N 1.271666 -0.940190 -0.498969
O -1.734896 0.074696 -0.204166
C 0.232370 -1.107855 0.607794
C 1.089505 0.437253 -0.869334
H 0.271662 -2.097269 1.110021
H 0.152048 0.225221 2.490074
H 0.916238 2.230075 0.689562
H -1.488021 -1.827038 -0.830714
H -1.651048 1.745560 1.123923
H 0.325553 -0.749655 -2.555423
H 1.819770 1.002835 -1.477489