17
H8 C5 N2 O2
O 1.632875 -0.720775 1.563681
C 0.987999 0.803905 -0.148004
C -0.656246 0.117228 1.532545
C -1.178417 -0.413204 -0.711995
N -1.553843 -0.267401 0.605158
C 0.247369 -0.191002 -1.110241
C 0.788750 0.433857 1.260302
O 0.338911 0.299979 -2.419116
N -1.962295 -0.803258 -1.603637
H 1.057167 1.299067 1.916779
H 0.747760 -1.179145 -1.036638
H 2.119513 0.755980 -0.410810
H 1.360518 -0.951517 2.497359
H -0.434711 -0.115782 -2.851994
H 0.588953 1.781099 -0.404940
H -2.959874 -0.929787 -1.210379
H -1.124429 0.080725 2.531947