15
H6 C5 N2 O2
N 0.465116 -1.376359 0.720735
C 0.193511 2.045786 -0.163709
C -0.422655 -2.238887 1.073352
N -0.060383 -0.521627 -0.138201
C -1.626170 -1.982610 0.444077
O 2.348970 0.739395 0.347527
C 1.584841 1.397449 -0.518930
O -1.430483 -0.886681 -0.274832
C 0.229487 0.735511 -0.795066
H -0.170552 2.862537 -0.692504
H -0.280019 -3.093916 1.739206
H -0.195569 0.692144 -1.774158
H -2.610231 -2.328823 0.487601
H -0.073148 2.033832 0.909706
H 2.047292 1.922246 -1.364807