19
H10 C8 O1
C 0.610574 1.382962 -0.645543
O 0.791887 1.489822 2.809456
C 1.181912 1.324140 1.722271
C -0.644843 -1.088998 -0.811798
C -0.330858 -0.197927 -2.142931
C 0.519198 0.938053 -1.842639
C 0.411583 0.702709 0.507301
C -0.289937 -0.418199 0.467649
C -0.644343 -1.133548 1.776885
H -0.478108 -0.549675 2.631772
H 2.295868 1.280220 1.479879
H -1.641946 -1.565097 1.779043
H 0.902541 1.441535 -2.732352
H -0.018781 -2.068468 1.868866
H -1.678417 -1.334060 -0.757960
H -1.302011 0.033193 -2.611555
H 0.282499 2.721457 0.297610
H -0.160530 -2.049889 -0.889682
H 0.193673 -0.908254 -2.906272