18
H9 C8 N1
C -1.700199 -0.960069 0.515571
N 0.139382 0.247884 0.920412
C -0.312592 -1.239947 1.280135
C -0.907193 0.904576 -1.225676
C 0.441357 1.402396 -0.843874
C -1.211013 0.524989 0.203962
C 2.382297 -0.017095 -0.240991
C 1.062460 0.477877 -0.073254
C 3.517122 -0.281359 -0.239101
H -1.752635 1.276434 0.797727
H -0.425535 -1.353140 2.280289
H -2.576820 -1.069749 1.216848
H -0.945790 0.151798 -1.955428
H -1.560625 1.738978 -1.600774
H -1.751503 -1.572669 -0.379554
H 0.777749 2.331777 -1.017379
H 4.499316 -0.585017 -0.417293
H 0.324196 -1.977683 0.778393