17
H8 C5 N2 O2
C 0.894776 0.290257 0.631225
N -3.120696 -0.030030 -0.093235
C 0.471901 -0.288784 -0.728497
N -0.922246 -0.517583 -0.741493
C 0.041428 1.486120 1.029621
C 1.260486 -1.587215 -1.026952
O -1.416347 1.060266 0.918415
C -1.851875 0.142740 0.002216
O 0.301297 1.973649 2.170014
H 0.779295 -0.501165 1.404981
H 2.336383 -1.435906 -1.029835
H 0.937946 -2.012417 -2.045301
H -3.548074 0.574905 0.532451
H 0.715693 0.421927 -1.531359
H 1.928941 0.569627 0.631170
H 0.163869 2.275326 0.165960
H 1.027239 -2.421714 -0.289391