25
H16 C8 O1
C 0.189377 -0.961475 -1.240283
C -0.944954 2.480202 0.363072
C 1.634860 -0.880911 -0.613725
C 0.364210 1.628116 0.299899
O 1.528709 -0.421871 0.702497
C -0.380979 0.191978 2.294348
C -0.052525 -2.184619 -2.120096
C -0.596942 -0.874648 0.024004
C 0.124396 0.239011 0.907557
H 0.627923 1.652899 -0.641471
H 0.022859 -0.051105 -1.839521
H -1.675227 -0.625969 -0.157202
H -1.770265 1.986093 -0.147165
H 0.559064 -2.223819 -3.033757
H -1.503689 0.407524 2.340674
H 1.161122 2.181134 0.950799
H -0.818540 3.518894 -0.101506
H 0.061716 1.044677 2.949942
H -0.120882 -0.713821 2.841629
H -0.553160 -1.822664 0.591087
H -1.292904 2.685619 1.422369
H 2.097928 -1.839446 -0.620778
H 2.372373 -0.195263 -1.245850
H -1.158607 -2.135721 -2.416741
H 0.124140 -3.084846 -1.509762