21
H12 C8 O1
C 0.613867 0.339366 1.507710
C -1.002168 -0.797928 -1.716340
C 1.956612 0.305801 0.685875
O -1.995042 -1.051299 -2.277695
C -0.551992 -0.089123 0.638697
C -0.736855 0.392269 -0.788025
C 1.737380 -1.164648 0.460039
C -1.881005 1.398408 -0.869067
C 0.372593 -1.124477 1.137787
H -1.504312 -0.061120 1.217359
H 0.019440 -1.855973 1.831221
H -0.165418 -1.532112 -1.799016
H 0.451929 0.995948 2.393677
H 2.053510 0.982287 -0.148341
H 0.219773 0.829817 -1.178189
H 2.725413 0.548098 1.364207
H -2.874124 1.049575 -0.480662
H 1.778917 -1.420134 -0.675655
H 2.453303 -1.818403 0.971660
H -1.630487 2.308476 -0.313779
H -2.041373 1.765172 -1.961454