20
H11 C6 N1 O2
C 1.602999 -0.052882 -0.379095
C 0.316767 -0.947511 -0.622507
C 0.621285 0.682468 1.686412
C 1.568584 0.996639 -1.520534
O 2.447624 1.108693 -2.236537
C -0.735059 0.617645 1.008320
C -2.091055 -0.931156 -0.298262
N -0.770268 -0.713631 0.292775
O 1.635103 0.694512 0.803457
H 0.676111 -0.148656 2.431805
H -2.344063 -0.332665 -1.150195
H 2.467411 -0.608886 -0.521360
H 0.640086 -1.964103 -0.423160
H -2.148154 -2.032601 -0.613711
H 0.667626 1.593412 -1.592842
H 0.004325 -0.845979 -1.679472
H -2.854443 -0.881299 0.487626
H -0.826035 1.446752 0.317890
H 0.683097 1.660944 2.297445
H -1.561976 0.658342 1.711947