13
H4 C4 N1 O1 F3
O -0.479490 0.973305 -0.654741
C 0.687165 -0.999666 -1.281461
C -0.735453 0.936845 1.656867
C 0.397138 -0.930071 0.198561
N -0.082040 0.129244 -1.767476
C -0.240299 0.245928 0.472872
F 0.136340 1.935747 1.983122
F -0.710088 0.081855 2.735993
F -1.929382 1.507216 1.544504
H 0.621001 -1.655278 0.961899
H 0.291064 -1.905798 -1.788447
H 0.280517 0.664858 -2.560989
H 1.763533 -0.984195 -1.500716