20
H11 C6 N1 O2
C 0.501469 -0.073370 0.162551
C -0.361702 -1.290004 -0.474705
C -0.964831 1.966505 0.349898
O 0.072353 -2.415895 -0.419805
C 1.934908 -0.242500 -0.342608
O -1.536415 1.870077 1.325297
N 0.003017 1.217221 -0.324703
C -1.620123 -0.932481 -1.174798
C 0.419892 -0.242848 1.699732
H 0.839257 -1.231553 1.936812
H 1.071581 0.515018 2.154927
H -0.631589 -0.218674 2.042689
H 2.014873 -0.169656 -1.439085
H 0.429769 1.576298 -1.196318
H -2.323035 -0.375725 -0.486605
H 2.382354 -1.186763 -0.072533
H -1.508842 -0.381396 -2.100540
H -2.166139 -1.917378 -1.442908
H 2.537147 0.613833 0.116063
H -1.093912 2.919259 -0.313363