16
H7 C5 N1 O3
O -1.979615 0.719303 -0.029007
C 0.403303 0.106646 -0.551008
C -0.990689 -0.326176 0.063279
O 0.868263 -0.336514 1.915640
C -1.609069 1.793045 0.722963
O 0.910127 -1.377321 -2.345556
C 0.013984 0.356532 1.001282
C 1.297853 -1.012856 -1.054544
N -0.454442 1.655691 1.384834
H 0.007117 -1.468071 -2.375310
H -2.201637 2.537231 0.732933
H 0.520442 1.057999 -1.052946
H -1.348025 -1.347660 0.210418
H 1.265727 -1.883015 -0.313503
H 2.375531 -0.722113 -0.991852
H 0.921092 0.247282 2.682363