12
H3 C4 N5
C 0.400322 -1.815802 -0.926900
N -0.109170 -2.088264 0.372177
N -0.463373 1.445644 1.173888
N -0.186844 0.210880 0.555224
C -0.323816 -1.022891 1.082532
C 0.256843 0.416955 -0.762749
N 0.619462 -0.673984 -1.557016
C -0.145165 2.245218 0.188917
N 0.296545 1.716944 -1.027661
H -0.686613 -1.061168 2.093599
H 0.572020 -2.722299 -1.504000
H -0.230216 3.348773 0.311978