17
H8 C8 O1
C 0.885810 -0.122453 -0.332629
C -0.721000 0.491342 1.350467
C -0.229396 0.344852 -0.991010
C -1.266028 0.936256 -0.048097
C 0.747645 0.030544 1.139670
O -1.323501 0.451721 2.390250
C -0.403746 0.402364 -2.433495
C 1.416482 -2.311398 2.326972
C 1.110742 -1.218521 1.820083
H 1.652205 -3.162868 2.859657
H -1.313788 2.009630 -0.075277
H 1.768483 -0.554184 -0.792088
H 0.433008 0.014106 -3.036933
H -2.258150 0.515273 -0.217450
H -0.581904 1.480209 -2.801363
H -1.312966 -0.108789 -2.765360
H 1.396118 0.801897 1.606621