18
H9 C6 N1 O2
O -0.293667 0.477157 1.566471
C -0.842484 -0.860525 1.118784
C -1.346580 0.559170 -1.072451
C -0.297158 -0.426443 -1.439233
O 1.086570 -0.266646 -1.223261
C -1.229210 -0.770256 -0.307665
N 2.911498 0.830296 -0.293589
C 1.037894 0.807105 1.024923
C 1.703562 0.469531 -0.207140
H 3.227484 0.324569 -1.093073
H -0.350400 0.646917 2.539273
H -0.393572 -1.017596 -2.348962
H -0.081454 -1.667709 1.246403
H -1.975240 -1.563242 -0.604575
H -1.059049 1.480038 -0.501301
H -1.648891 -1.119220 1.766400
H 1.665647 1.392003 1.664864
H -2.114939 0.704861 -1.835882