18
H9 C7 N1 O1
C -0.352318 0.293641 0.152125
C -0.384457 -0.335443 1.607141
C -0.328109 -0.804884 -2.127742
C -0.834272 1.573235 -0.291257
O 1.131965 0.944683 3.109684
C 1.034663 -0.435811 -0.030705
C 0.876826 0.208003 2.338464
C 1.061921 -1.022664 1.408773
N -0.185475 -0.987158 -0.661353
H -1.412063 -0.772503 -2.373378
H -1.946016 1.544664 -0.274956
H -0.555972 2.362269 0.402226
H -1.278350 -0.757645 2.134202
H 0.148345 0.080989 -2.526566
H 1.907103 -0.180687 -0.651139
H 1.461080 -1.865897 1.791509
H -0.503547 1.827597 -1.378681
H 0.158671 -1.672383 -2.628341