19
H10 C7 N2
C -0.488442 0.014794 0.631741
C -0.788694 1.490480 0.866280
C 1.603018 -0.206784 -0.904738
N -1.881258 0.473614 0.565469
C 0.767507 0.625500 -1.759009
C 0.164530 -0.368750 -0.693659
C -0.454109 -1.598159 -1.185550
C -0.066361 -0.796305 1.885825
N -0.943989 -2.517968 -1.611663
H 2.201266 0.237885 -0.085071
H 0.595525 0.302061 -2.781032
H 0.956276 -0.706765 2.055750
H 0.677099 1.688820 -1.562823
H 2.140812 -1.049992 -1.370004
H -0.322095 -1.832753 1.642039
H -2.081123 0.610426 -0.422524
H -0.757202 1.873979 1.883491
H -0.662114 -0.475275 2.748508
H -0.660637 2.235213 0.096954