21
H12 C7 O2
C 1.264297 3.628008 -0.119857
C -0.627290 -2.786216 -1.059243
C 0.825713 -1.183597 0.523447
C -0.326477 0.401456 0.811934
C 0.265435 2.391225 -0.292254
C -0.777325 -0.535606 -0.005844
C -0.671607 -1.852217 0.665797
O 0.634210 1.380297 0.674354
O 1.261140 4.605225 -0.646043
H -1.676633 -3.042586 -1.135317
H -1.334435 0.796041 1.164021
H -0.907628 -0.607837 2.056974
H -0.396242 -2.244818 -2.013654
H -0.982100 -2.540531 1.233219
H 0.341476 1.988333 -1.346574
H 2.167378 3.214995 0.528056
H 1.459797 -1.188887 1.379025
H -1.211886 -0.300976 -0.935076
H -0.826371 2.716956 -0.111992
H 1.530400 -1.282943 -0.417324
H -0.011834 -3.556331 -0.953630