19
H10 C7 O2
C -0.038000 -0.444243 -0.187837
C 0.928699 1.611647 1.265192
O 0.261040 1.798616 -1.103039
C -1.361642 -2.143719 -1.494088
C -0.796651 -0.743157 -1.485370
O -2.539290 -2.367414 -1.635608
C 1.261232 -1.258566 -0.012932
C -0.180086 2.150516 1.956487
C 0.362336 1.042549 -0.112253
H 1.740511 2.299830 1.051519
H -0.645113 -2.992336 -1.370735
H 1.321859 0.685052 1.894268
H 0.030574 2.555508 2.950704
H -0.673186 -0.585858 0.682683
H 1.940984 -1.044786 0.626178
H 1.332699 -2.045586 -0.719542
H -1.201057 2.142458 1.630747
H -0.131370 -0.631065 -2.306603
H -1.613528 -0.029428 -1.629782