17
H8 C7 O2
C -1.516567 -0.663457 -0.079049
C 1.698876 0.153369 0.209887
O 1.204744 -2.251710 0.619482
C 0.609554 1.202223 0.160873
C -0.511972 -0.514439 1.134068
C -1.098950 0.158021 -1.215194
C 0.912882 -1.099385 0.655070
C -0.215915 1.129445 -1.078324
O -0.259893 0.802015 1.283772
H 2.220282 -0.065500 -0.779879
H -1.663209 0.027497 -2.178624
H 0.977943 2.183721 0.354097
H -1.531069 -1.727435 -0.353734
H -0.808307 -1.010585 2.008574
H 0.073872 1.780831 -1.957707
H 2.437027 0.297730 0.975399
H -2.529306 -0.402328 0.241323