15
H6 C7 O2
C -0.892232 0.340656 1.715272
C 1.181976 1.281251 -2.527560
C 0.364986 0.837853 0.968367
C 0.373999 -1.472640 -0.168542
O -1.642565 -0.565488 0.859028
C -0.869005 -0.806188 -0.259091
C 0.786374 0.699240 -1.523748
C 0.333758 0.042139 -0.345837
O 1.057003 1.675616 1.310258
H 0.632643 -1.809401 0.792020
H 1.497349 1.698356 -3.350708
H -0.620767 -0.138332 2.685877
H -1.503012 -0.975936 -1.102411
H -1.441682 1.230528 1.946931
H 0.741184 -2.037642 -0.999837