19
H10 C6 O3
C 0.563715 0.311726 -0.654820
C 0.870414 1.269662 0.352151
C -2.317476 -0.938256 0.499802
O -3.505115 -0.901059 0.818139
C -0.562350 0.823809 0.192508
O 0.893908 -0.973844 -0.384575
C 2.096267 -1.353046 -1.028912
C -1.240748 -0.077040 1.212263
O -1.407222 1.706120 -0.440940
H 1.117707 2.322563 0.081223
H -1.838983 -1.624137 -0.327489
H 2.035208 -1.328201 -2.152367
H -1.753283 0.507334 1.935837
H 2.344772 -2.376930 -0.740647
H 1.372608 0.964461 1.233835
H -1.606026 2.475850 0.128458
H -0.538415 -0.726936 1.628798
H 0.523722 0.675521 -1.664426
H 2.951322 -0.757611 -0.688870