15
H6 C6 O3
O 1.239488 1.484636 2.865111
C -0.901337 1.057432 0.205641
C 1.446311 -0.202005 1.201385
O 2.362753 -0.716682 1.692037
C 0.775976 1.008935 1.896416
O -0.420820 1.495900 1.395755
C -1.139962 -0.496748 -1.742678
C -0.460617 0.029727 -0.521758
C 0.770920 -0.742952 -0.078387
H 1.595791 -0.628682 -0.855713
H -0.483456 -0.428392 -2.603464
H -2.102048 -0.011625 -1.881902
H -1.425702 -1.618445 -1.649595
H -1.902758 1.547840 0.037975
H 0.645465 -1.778931 0.039184