17
H8 C7 N1 F1
C 1.516720 1.049845 -0.849536
N -1.098497 -1.302916 0.588535
C 0.255054 0.563382 -0.125451
C -1.845137 0.962155 0.992921
C 0.036559 -0.819156 0.023638
C -0.670001 1.480219 0.408857
F -3.119699 -0.916078 1.620561
C 0.971168 -1.850242 -0.502947
C -2.027082 -0.438974 1.078580
H 1.605857 0.672927 -1.853859
H 1.955880 -1.716469 -0.075035
H 0.577031 -2.815676 -0.242072
H 2.380942 0.742655 -0.334504
H 1.064476 -1.855286 -1.586624
H -2.613011 1.577406 1.424631
H -0.532705 2.512354 0.288005
H 1.542490 2.153816 -0.855696