21
H12 C6 O3
C -0.403820 -0.286382 0.213604
C -0.155916 -1.637156 0.818256
C -1.287300 2.080827 0.690444
C 1.173989 -0.592596 -1.758069
O 2.410809 -0.003648 -2.397447
O -2.434452 2.428438 0.878030
C 0.863913 0.209598 -0.584662
C -0.715081 0.755570 1.337991
O -1.709341 0.216956 2.209598
H 0.209944 1.054980 1.920198
H 1.721721 0.128485 0.115538
H -0.592697 2.722948 0.109696
H -2.481627 0.810831 2.216426
H -1.256671 -0.255716 -0.465395
H 0.335944 -0.543826 -2.476846
H -0.100643 -2.403765 0.012315
H 0.769042 1.272212 -0.938292
H 2.589397 -0.605758 -3.173831
H 0.714271 -1.733943 1.421785
H -1.050113 -1.938296 1.402232
H 1.398617 -1.679763 -1.551567