16
H8 C5 N2 O1
N 0.178812 -1.085672 1.121866
C 2.623148 0.152829 0.521446
O 1.353554 1.703559 -0.797876
N -2.552208 0.234329 0.213498
C 1.395228 0.719904 -0.091644
C 0.041400 -0.006535 0.294524
C -2.103673 -0.396367 -1.066834
C -1.173045 0.485122 -0.372623
H -2.317318 -0.403612 0.953330
H -1.824716 -1.463483 -1.108509
H -0.691637 -1.460688 1.219893
H 2.724810 -0.868193 0.205817
H -2.637888 -0.054773 -1.934906
H 2.602619 0.213443 1.561131
H 3.458117 0.733127 0.077043
H -1.077232 1.497025 -0.796190