14
H6 C6 O2
C -0.305340 -0.755034 -0.579223
C 0.608595 -1.113524 0.541505
C -0.921287 0.649094 -0.405634
O 1.369343 0.340502 2.343348
C -0.462946 1.093347 0.901051
O -0.830118 2.062402 1.473736
C 0.105420 0.434761 -1.478695
C 0.644523 0.124913 1.397819
H 0.200920 -1.986294 1.131300
H 1.653126 -1.419381 0.218848
H -0.986770 -1.576069 -1.056637
H 1.116531 0.791649 -1.322304
H -0.304293 0.420369 -2.489561
H -1.887711 0.933279 -0.675548