16
H8 C4 N4
C -1.133847 -1.395318 0.694215
N -0.140497 0.205880 0.099195
C 0.754610 1.405415 0.081084
C 1.834669 1.420834 -1.004884
N -0.262218 -0.591268 1.158264
C -0.861379 -0.195589 -0.948299
N -1.550135 -1.250773 -0.568076
N -1.516266 -2.579991 1.475217
H 1.222251 1.411976 1.077756
H -1.492033 -2.376336 2.470287
H -2.452734 -2.919910 1.162446
H 0.132295 2.327930 -0.016811
H 2.489137 2.310274 -0.873431
H 1.429202 1.407889 -1.959616
H 2.541112 0.550761 -0.928621
H -0.994151 0.268236 -1.918750