20
H11 C6 N1 O2
C -0.052479 0.098637 0.044111
C -1.141197 -0.359011 1.030258
O 0.942680 -0.953601 0.023771
C 1.534128 2.025838 -0.542577
C -1.928504 -1.517513 0.465123
C 1.687351 -1.026816 -1.143198
N 2.204271 2.396175 -1.315323
C 0.604415 1.458387 0.453493
O -0.456574 2.448962 0.748627
H 1.129336 1.326353 1.384615
H -2.612026 -1.247570 -0.429415
H -0.799431 2.711686 -0.081925
H -1.358202 -2.383434 0.149927
H 1.105150 -1.157389 -2.092851
H -2.724713 -1.828659 1.236681
H 2.394022 -1.925121 -0.954014
H -1.764934 0.497370 1.292273
H 2.377181 -0.181999 -1.329314
H -0.613804 -0.674386 1.984032
H -0.526652 0.292089 -0.924321