21
H12 C7 O2
C -0.369877 -1.033491 -1.631830
O 1.539325 0.872179 1.978382
C 0.545641 -0.158256 2.130300
C 1.199641 1.103237 0.609495
C 0.148821 -1.134913 -0.235824
C -1.344961 0.669874 0.636553
C -0.024098 0.091426 0.714281
C 0.018106 0.166936 -2.412989
O 0.245414 1.391756 -1.989530
H -2.071995 -0.050401 0.917749
H 0.071121 0.063930 -3.499583
H 0.950110 -1.128778 2.302577
H -0.445562 -2.028534 0.242804
H -1.404668 1.493375 1.334367
H 0.951186 2.123151 0.374878
H -1.457400 -1.059321 -1.710397
H 0.076167 -1.894569 -2.273973
H 2.056444 0.748768 0.023037
H -0.225627 0.104297 2.967083
H -1.632182 1.115112 -0.316335
H 1.174379 -1.455766 -0.161049