15
H7 C5 N1 O2
O -0.295003 1.288370 1.622410
C -0.963829 0.130814 -0.481901
C -0.752641 1.383397 0.336636
C 1.377495 0.439267 -0.446253
N 0.081165 1.043361 -0.798565
C -0.369251 -1.269618 -0.063644
C 1.100886 -1.119971 -0.445859
O 2.336288 1.032387 -0.241566
H -1.076092 1.160180 2.228301
H -0.402456 -1.236121 1.062144
H 1.806309 -1.588985 0.251048
H -1.461730 2.248860 0.179072
H -0.835092 -2.066346 -0.496831
H 1.233140 -1.499235 -1.406241
H -1.779196 0.053643 -1.298773