15
H7 C4 N3 O1
C -1.465724 -0.388952 1.588572
O 1.121959 1.405991 1.412395
C 0.605539 -0.351635 -1.264189
C -0.512638 -0.072016 0.497770
N 0.925297 0.893922 -1.025395
N 1.099537 -0.960062 -2.402352
C 0.263872 1.121290 0.288456
N -0.176521 -0.982754 -0.440154
H -0.299216 2.054882 0.223662
H -1.633039 0.524238 2.117192
H -2.408010 -0.681177 1.154433
H 1.357235 -0.286538 -3.144369
H -1.072111 -1.141854 2.238685
H 1.634514 0.633993 1.506265
H 0.559285 -1.769318 -2.750951