20
H12 C6 O2
C 2.707761 0.627553 0.919363
C 0.848661 -1.168199 0.650211
O 1.406846 0.461352 -1.155028
C -1.715346 -0.508900 -0.591395
C 1.517259 0.100750 0.208983
C -2.915033 0.238481 -1.139140
O -0.923983 0.549203 0.075629
C 0.095889 0.072216 0.880037
H -1.108995 -0.845518 -1.368279
H 3.678312 0.257204 0.439938
H 1.374961 -1.688745 1.501054
H 0.712021 1.099133 -1.245004
H -2.622451 1.085683 -1.816503
H 0.555715 -1.873564 -0.150603
H -3.569483 -0.438286 -1.724178
H 0.144447 0.383858 1.891698
H 2.675703 0.393426 2.013186
H -3.515363 0.710508 -0.356983
H 2.732361 1.750143 0.866353
H -2.079302 -1.206303 0.100677