21
H12 C5 O4
O -0.867281 -2.529575 -0.606180
C -1.220392 -1.302194 -0.924166
C 0.776462 -0.675712 0.065784
O 1.426347 2.308030 2.284693
C 0.837168 1.098256 1.781591
C -2.517043 -0.951072 -1.516275
O 0.961964 2.107119 -0.141358
C 1.490026 0.654420 0.393049
O -0.466904 -0.288164 -0.606544
H 2.509042 0.400455 0.790906
H 1.374078 -1.310198 -0.584082
H 0.547046 -1.290222 0.889529
H -3.088289 -0.383998 -0.659246
H 0.134055 1.956443 -0.472388
H -0.657057 -2.937604 -1.522245
H -3.082876 -1.822879 -1.800130
H 1.095659 0.433434 2.571845
H -2.394298 -0.249392 -2.357817
H 2.055340 0.683389 -0.783708
H 1.334703 2.947673 1.577885
H -0.247770 1.151813 1.618858