24
H15 C8 N1
C 0.740060 0.864488 1.038778
C -0.204918 -0.241876 -1.312076
C 0.934166 -1.563680 -0.092729
N -1.569970 -0.946047 -0.934812
C -2.273320 0.587425 0.899520
C 0.849562 -1.308735 -1.562555
C 1.854126 1.686291 0.329948
C -1.428852 -0.631875 0.459040
C 0.114591 -0.285674 0.212277
H 1.242615 0.397121 1.956773
H -2.073570 0.819576 1.917346
H 0.001499 1.527399 1.431487
H 2.294797 2.402539 1.011250
H 2.678596 1.041553 0.005491
H -2.269832 -0.451949 -1.444462
H 2.052301 -1.437130 0.348730
H 0.539345 -2.478902 0.334027
H 0.565188 -2.129772 -2.255057
H -0.236577 0.659653 -1.898748
H 1.803496 -0.912441 -2.035067
H 1.483645 2.187373 -0.544706
H -3.353092 0.252402 0.769553
H -2.155309 1.444963 0.234354
H -1.588588 -1.482717 1.131610