14
H5 C5 N3 O1
N 1.742102 1.707244 -1.842514
C 0.369146 0.218235 -0.360065
C -0.052383 -1.037649 -0.610807
O -0.805717 -1.548079 0.427827
C -0.130606 0.543662 0.956952
C -0.822123 -0.525566 1.332261
N 0.170696 1.719999 1.658557
N 0.134899 -1.885831 -1.639038
C 1.146297 1.081647 -1.183051
H -0.468664 1.939428 2.379036
H 0.380790 -1.347667 -2.525433
H -0.635079 -2.529136 -1.825816
H -1.357315 -0.779011 2.180195
H 0.327944 2.442725 1.051867