16
H7 C6 N1 O2
O -0.407693 -1.186710 -1.008327
C 0.692912 0.633971 0.332427
O 0.522264 0.784507 2.647974
C -0.112094 1.264633 1.607305
C -0.277989 -0.854057 -2.435975
C -0.803685 -0.125289 1.286025
C -0.571198 0.003515 -0.243842
C 0.820132 -0.338593 1.472920
N -0.329883 -0.712296 2.436635
H -0.508449 2.268474 1.560872
H 1.565902 -1.144095 1.529302
H -1.361621 0.708095 -0.688086
H -0.104604 -1.845687 -2.856224
H -1.193111 -0.407974 -2.853339
H 0.590671 -0.253571 -2.623635
H 1.478427 1.205093 -0.164035