16
H9 C4 N1 O2
C -0.916612 0.893299 -0.963400
N -2.260680 0.870286 -1.347023
C 0.844268 0.009452 0.669416
O -0.185754 1.857886 -1.311576
C 1.406100 -1.293919 1.306467
O 1.854971 0.598373 -0.136649
C -0.422981 -0.260439 -0.191484
H -1.205078 -0.709178 0.429041
H -2.851101 0.138328 -1.060568
H -0.175229 -1.114520 -0.868649
H 2.217534 -1.067065 1.932607
H 1.497542 1.418456 -0.520824
H -2.628060 1.652230 -1.873541
H 1.723409 -2.009487 0.537054
H 0.476193 0.726110 1.493361
H 0.625464 -1.709817 1.905726