12
H3 C5 N3 O1
N -0.459111 -3.194225 -1.958274
C -0.343238 -2.241349 -1.490412
O -1.148440 -0.048262 -1.140095
N 1.631644 0.543624 1.863757
C -1.047562 1.144892 -0.468396
C -0.246027 -1.043360 -0.712717
C -0.150226 1.393029 0.557224
C 0.787731 0.349307 0.956557
N 0.637652 -0.896100 0.193959
H 2.213047 -0.298232 1.992779
H -1.739694 1.897892 -0.819804
H -0.135796 2.392773 1.025439