18
H9 C6 N3
C 0.399555 0.591106 0.910024
C -0.468083 0.734385 -0.429065
N 1.786343 -0.547356 -1.046371
C 0.632382 -0.380154 -0.344029
C -0.229107 -0.463183 1.757402
N -1.846612 0.467211 -0.317226
C 0.099706 -1.504556 0.519933
C -0.046036 1.718361 -1.352201
N 0.319053 2.550075 -2.103943
H 0.468074 -0.724616 2.610650
H -0.824368 -2.057379 0.206934
H -1.189034 -0.350176 2.049591
H -2.326521 1.148489 0.210480
H 1.557076 -1.193076 -1.890882
H 2.085322 0.262527 -1.515824
H -2.288302 0.485197 -1.235055
H 1.027609 1.468756 1.158489
H 0.842930 -2.205632 0.811108