15
H6 C6 O3
C 1.832165 -0.167100 -2.622266
C -1.201766 0.241937 1.045236
C -0.086600 0.491914 0.205488
C -0.881288 -0.806028 2.136973
O -2.368055 -0.267075 0.429898
C 0.802452 0.631286 -0.500993
O 2.815106 -0.171856 -3.428792
C 1.898600 0.880140 -1.524695
O 2.690779 1.734167 -1.475644
H -1.823511 -0.968123 2.836993
H -0.673835 -1.801109 1.644177
H -1.421315 1.171506 1.581039
H 1.085031 -0.896498 -2.743888
H -0.087559 -0.459812 2.769471
H -2.580209 0.386642 -0.353001