16
H7 C6 N3
C 2.166495 0.379963 0.493790
C -0.229197 -0.223357 0.255963
C -1.278539 -0.754558 -0.728777
C -2.679864 -0.489517 -0.455682
N -0.925788 -1.383103 -1.789873
C 1.109745 0.053914 -0.423961
N -0.739078 0.901747 0.970282
C 2.924031 0.733416 1.326144
N -3.815923 -0.282213 -0.267516
H -1.616136 -1.713371 -2.361655
H -0.006386 1.218226 1.631665
H -0.896874 1.683333 0.347086
H 1.437446 -0.895537 -0.971265
H 3.689008 0.938429 2.103300
H -0.098072 -1.039761 1.033418
H 0.959122 0.872401 -1.162908