13
H4 C5 N2 O2
O -2.096659 1.243835 1.845227
C 0.198326 -0.243657 1.307186
O -0.806852 0.695172 -2.087009
C -0.206471 0.150713 -1.129567
N 1.261115 -0.838703 1.066520
C -0.610299 0.348468 0.305510
N 1.607477 -1.077784 -0.215295
C -1.752804 1.115592 0.663564
C 0.944292 -0.561984 -1.283115
H 1.348089 -0.719060 -2.293415
H -0.032356 -0.095347 2.334148
H 2.483537 -1.612041 -0.366616
H -2.337396 1.594809 -0.147130