21
H12 C7 O2
C -1.291397 -1.028527 -0.157561
O -1.026172 0.180450 -0.950355
C 0.356340 0.084451 -0.646757
O 2.675867 0.657275 1.378744
C 0.092154 1.955811 1.172392
C -1.837954 -2.150872 -1.052249
C 0.134222 -1.106094 0.303307
C 0.904228 1.379267 -0.004984
C 2.339783 1.160236 0.310377
H 0.864238 2.179965 -0.838932
H 0.486916 2.945873 1.393645
H -2.033429 -3.055025 -0.439205
H 0.654466 -1.995668 0.054400
H 3.125713 1.407304 -0.437120
H 0.932980 -0.166211 -1.522948
H -0.985093 2.098337 0.822261
H 0.297522 -0.848322 1.349416
H -2.028322 -0.793724 0.627106
H 0.192805 1.339817 1.991009
H -1.103195 -2.383476 -1.808841
H -2.751660 -1.860840 -1.543713