18
H9 C7 N1 O1
N 0.362120 0.512315 -1.680016
C -1.250967 -0.919833 -1.599194
O 0.069312 1.812397 2.084417
C 0.878835 -0.529162 -0.646620
C 0.635283 0.699062 2.641798
C 0.610478 0.992670 1.164854
C -0.953115 0.386686 -0.859374
C 0.124908 -1.012019 -1.808404
C -0.118041 -0.103191 0.349829
H -1.681671 1.282011 -0.814444
H 0.694590 -1.494718 -2.676051
H -0.762466 -0.825610 0.982673
H 1.618718 0.783670 3.108871
H -1.778826 -1.688223 -1.032390
H 1.419628 1.475404 0.619716
H 1.966072 -0.764959 -0.544480
H -1.835810 -0.668587 -2.549462
H 0.001002 0.062092 3.258268