21
H12 C8 O1
C -1.293665 -0.981939 -0.401740
C 0.151182 0.693200 -1.700956
C -1.260689 0.420077 -1.022835
C -0.701496 1.044430 0.273681
C 0.513957 -0.861398 1.546991
C -0.790953 -0.395480 0.932311
C 1.748788 -0.565569 0.682333
C 0.659612 1.312396 -0.363888
O 1.743172 0.808540 0.273172
H -0.672095 -1.757418 -0.849218
H -2.331663 -1.375932 -0.290092
H 0.719354 -0.163253 -2.117650
H 1.704673 -1.162189 -0.186972
H -2.134554 0.766805 -1.595342
H 0.461026 -1.961860 1.758170
H 2.650486 -0.745121 1.227991
H -1.583056 -0.448336 1.639976
H 0.884482 2.393768 -0.491233
H -1.193264 1.873799 0.745295
H 0.078322 1.451233 -2.543063
H 0.646378 -0.345701 2.483102