16
H7 C6 N1 O2
O 2.402692 -0.168139 1.396508
C -1.076046 0.821811 0.648699
N 1.965323 -0.979766 0.333929
C 0.723799 -0.550912 0.118402
C 1.433596 0.641293 1.763375
C -1.210498 0.226621 -0.811791
C -0.300065 -0.962637 -0.889236
C 0.295791 0.444674 0.922639
O 0.218703 -1.308356 -2.208871
H -2.269317 -0.015480 -1.099682
H 1.599207 1.372952 2.527527
H -0.849500 -1.889119 -0.582519
H -0.841654 0.929958 -1.599666
H 0.999020 -0.765759 -2.407159
H -1.771815 0.329621 1.285334
H -1.319233 1.873262 0.602510