17
H8 C8 O1
C -0.829603 -0.091462 0.525384
C -0.924069 1.350767 0.057431
C 0.125527 1.407684 -0.725819
C 0.654155 -0.016896 -0.678626
C -1.817779 -0.517811 1.410609
O -0.590224 -0.793303 -0.719993
C -2.684980 -0.923206 2.197232
C 0.670437 -0.261087 0.839378
C 1.724007 -0.496604 -1.632497
H 0.527582 2.216012 -1.408562
H -1.609632 2.147501 0.363138
H 2.661673 0.078420 -1.489510
H 1.388913 -0.393141 -2.681337
H 2.018956 -1.512583 -1.466062
H 1.266842 0.387675 1.476197
H -3.467451 -1.263008 2.882793
H 0.885676 -1.318937 1.050199