15
H8 C4 O3
O 0.930728 -0.932292 1.140748
C -0.960956 0.321750 1.447157
C -0.168673 -0.415677 -0.931454
C 0.053984 -0.391863 0.585167
O -0.517441 0.356590 2.699384
C 0.678951 0.723475 -1.657644
O 0.263709 -1.640638 -1.417000
H 0.329577 1.715938 -1.273441
H 0.841872 -1.991249 -0.712633
H -1.092525 1.352297 1.052666
H -1.948299 -0.153791 1.296714
H 0.612529 0.648085 -2.666338
H -1.189019 -0.218755 -1.145302
H 1.760965 0.644524 -1.265919
H 0.404577 -0.018386 2.847907