18
H9 C6 N1 O2
C -0.915256 -1.802221 -0.646359
N -0.998141 1.011552 1.189295
C -1.075810 1.606777 -0.155986
O 1.252727 -0.613313 -0.990972
O 3.021690 -0.261306 1.458882
C 1.327701 0.424304 -0.031306
C 1.800036 -0.205402 1.284050
C -0.226225 0.577417 -0.070579
C -0.185768 -0.526161 -1.046832
H -0.587843 -2.631142 -1.242924
H -0.735353 -2.060717 0.433668
H 1.127673 -0.681432 1.981059
H -0.336377 1.637429 1.712607
H -1.994672 -1.752240 -0.761973
H -2.095389 1.578043 -0.523248
H -0.599436 -0.232055 -2.070888
H 1.895701 1.272036 -0.344359
H -0.675262 2.658400 -0.174163