18
H9 C7 N1 O1
C -1.266165 1.524185 -0.628223
C 1.060458 -1.096044 -0.510392
N -2.118987 -1.952927 0.609172
C -1.197619 -1.386555 0.531563
C 0.735228 0.069908 -1.499936
O -0.215256 1.992139 0.014490
C -0.026515 -0.499469 0.461964
C -0.228661 0.657198 -0.550949
C 0.508568 -0.060026 1.857950
H 2.056299 -0.954706 -0.062063
H 0.686591 -0.982149 2.500631
H -2.249641 1.369341 -0.163979
H 0.228685 -0.241679 -2.437938
H 1.507156 0.687802 -1.712813
H -1.476429 2.030728 -1.680035
H 1.369864 0.493156 1.718645
H -0.261994 0.453367 2.431566
H 0.888447 -2.104278 -0.879648