15
H6 C6 N2 O1
N -0.855037 -1.517441 -0.500214
C -0.348022 0.309985 0.615114
O 1.658224 0.718790 1.831719
C -0.518918 -1.146582 0.909859
C -0.715568 -0.040733 -0.860377
C 0.347636 -0.937221 -1.373854
C 0.853943 1.119668 0.931027
C 1.120204 2.253059 0.209403
N 1.306625 3.314644 -0.296233
H 0.414228 -1.650407 1.283018
H 1.260746 -0.881930 -1.067848
H -1.262368 0.950620 1.061547
H -1.429202 0.492894 -1.506208
H -1.295106 -1.500122 1.568196
H 0.168747 -1.406244 -2.349771