19
H10 C7 O2
C 1.197338 0.832155 0.866513
C 0.132727 1.139512 -0.287061
O -1.291011 -1.881533 0.889229
C -0.484920 -0.881556 0.371975
C 0.097417 -1.129831 -1.038227
C -1.077105 0.529344 0.211920
C 0.526932 0.276015 -1.473369
C 0.705265 -0.463644 1.397157
O 1.968382 -0.392034 0.686507
H 1.013230 -1.860114 -0.940370
H -2.203264 -1.689838 0.837514
H 1.549025 1.627305 1.482873
H -0.595643 -1.632885 -1.599420
H -1.897551 0.528599 -0.539405
H -0.094084 0.539572 -2.325356
H -1.554098 0.930028 1.163963
H 0.694321 -0.834791 2.383068
H 1.603262 0.397904 -1.751237
H 0.125332 2.258475 -0.434749