14
H5 C4 N5
N 1.585479 -2.636934 0.513290
C 0.245726 0.370759 0.087855
N 0.952327 -0.468527 0.886595
N -0.302706 1.468613 0.889825
N 0.479031 -1.318548 -1.067434
C -1.118499 1.488820 -1.177819
C 0.848151 -1.510306 0.084542
C -1.149136 2.157508 -0.055190
N -0.349950 0.376156 -1.092186
H -1.646780 1.626551 -2.163367
H 1.427880 -2.819831 1.510326
H 1.306856 -3.577490 -0.008412
H -1.774598 2.979999 0.233821
H -0.063802 1.805837 1.811572