16
H7 C8 N1
C -0.599732 -0.505329 0.262639
C 1.708267 -0.151525 0.199722
C 0.549973 -1.295640 -1.631250
C -1.415374 0.592485 0.907500
C -0.624854 -1.107577 -1.053750
C 0.507894 0.673918 0.358644
N 1.703743 -0.902208 -1.020771
C 0.587627 -0.541364 1.177969
C -0.524930 1.670230 0.606636
H 2.609381 0.017881 0.555753
H 0.550356 -0.876570 2.228528
H -1.539395 -1.200783 -1.613321
H -2.450790 0.527547 1.374186
H -0.327194 2.497594 1.366422
H -0.835919 2.266635 -0.356856
H 0.704526 -1.680307 -2.664980