15
H8 C6 O1
C -0.436286 0.372513 1.226937
C -0.542353 -1.001078 -1.789697
C 0.551091 1.098606 -0.912916
C 0.192257 -0.086275 -1.399994
C 0.334514 1.418705 0.366462
O -0.036906 -1.595662 -0.359919
C 0.011905 -1.040247 0.969720
H 0.633116 2.333142 0.739113
H -0.222324 -1.583121 -2.659841
H -0.138366 0.626489 2.310832
H 1.010568 1.845876 -1.628273
H -0.724277 -1.721008 1.601567
H -1.499949 0.472926 1.165140
H 1.083208 -1.223938 1.334718
H -1.602846 -0.980068 -1.872607