16
H7 C7 N1 O1
C -3.243686 0.554473 0.960272
C 1.275071 -0.999168 -0.389667
C -0.003454 -0.233056 -1.029513
N 0.294098 1.187161 -1.118663
O -0.135859 -1.065595 1.294991
C 1.076867 -0.373274 0.961175
C -0.717235 -0.032262 0.276807
C -2.100071 0.308869 0.670812
C 0.327199 1.016940 0.451880
H -0.516389 -0.681092 -1.937786
H 1.765660 -0.332004 1.759954
H 2.190433 -0.652063 -0.891132
H -4.276625 0.794853 1.183163
H 0.294697 1.952458 1.014733
H 1.253079 -2.076827 -0.457380
H 1.162192 1.437120 -1.495264