19
H10 C6 N2 O1
C 0.900567 -0.959024 -0.511146
C -2.475485 -0.515730 -0.221198
N 0.194911 3.344943 -0.317491
C -0.133128 2.137973 0.013478
N -0.019576 -0.030935 0.302463
C 0.520941 1.083413 0.651738
O -1.361464 1.635059 -0.198705
C -1.230908 0.296551 0.014536
C 1.894462 -1.677815 0.381706
H 1.557038 1.127846 1.201560
H -0.508977 3.731417 -0.784258
H -2.181073 -1.419790 -0.783584
H 1.495136 -2.302527 1.057554
H 2.680178 -1.006772 0.862223
H 2.573092 -2.373334 -0.245809
H 0.319557 -1.683919 -0.966271
H 1.468107 -0.324574 -1.190069
H -2.871207 -0.867022 0.842346
H -3.314906 -0.023101 -0.827424