15
H7 C5 N1 O2
C 1.173423 0.451775 -0.004664
C 1.453977 1.538203 -0.553237
C -0.785381 -0.752135 1.310064
N -0.694879 -2.011925 0.636888
C -1.527526 -1.102947 -0.007690
O 1.267582 1.895825 -1.951800
C -0.265349 0.348091 0.440983
O -0.960638 -0.154427 -0.752439
H 0.761489 0.976962 -2.248138
H -2.561953 -1.422910 -0.403559
H 1.801687 2.251144 0.222670
H 0.026823 -2.394386 0.181917
H 1.656599 -0.465215 0.029086
H -1.036590 -0.701724 2.315488
H -0.649653 1.366665 0.824461