15
H6 C6 N2 O1
C 1.035265 -0.808428 1.025171
C 0.578705 0.483032 0.727898
C 1.650713 -1.901492 1.163018
N -0.644824 1.321090 -0.812463
C 0.855325 0.915802 -0.652452
C -0.018931 0.300412 -1.619462
O -2.094689 -0.830125 1.702843
C -1.940800 -0.104444 0.649623
N -0.897295 0.748870 0.421747
H -2.656925 -0.206970 -0.085142
H 0.791679 1.296886 1.443051
H -0.337074 -0.810298 -1.577280
H 2.127658 -2.790498 1.457475
H 0.119269 0.547152 -2.708588
H 1.610139 1.684628 -0.946375