18
H9 C5 N3 O1
C 0.039005 1.904421 -0.141447
N 0.627111 0.850894 0.653440
C 1.940147 -0.828065 -0.764788
N -2.405337 0.077114 1.707147
C 0.004937 -0.253687 1.149121
N -0.558339 -1.374970 -0.671668
C -1.490905 -0.470798 1.036369
C 0.622815 -0.589152 -0.117049
O -1.816234 -1.070802 -0.133809
H 0.949193 2.430477 -0.604102
H 2.119821 -1.995069 -0.745672
H -0.494492 -1.925686 -1.406095
H -3.373879 -0.091616 1.438018
H -0.553802 2.507339 0.392971
H 0.384589 -0.703169 2.202813
H 2.678822 -0.426939 -0.171478
H -0.517031 1.449489 -1.020930
H 1.917395 -0.573743 -1.790730