15
H6 C6 N2 O1
C -0.582568 -0.293308 0.609346
N -3.216980 0.950314 -1.171405
C -0.819792 -0.086178 -0.902566
C 0.771308 -0.944710 0.264967
C -2.160372 0.333822 -1.118958
C 2.712762 0.957625 0.430760
O -0.683689 0.898236 1.519375
C 1.806291 0.058875 0.381770
N 0.136229 -1.220027 -1.112548
H 3.585573 1.656885 0.562158
H -0.375318 1.612070 1.013976
H -0.706877 -1.846213 -1.265230
H -1.283560 -1.143714 0.945774
H 1.150549 -1.925564 0.724509
H -0.178848 0.782790 -1.606608