24
H16 C7 O1
C -1.715316 -2.152482 1.877541
C 0.651102 0.334031 -2.440925
C 0.896795 1.904613 -0.536934
C 0.075174 0.728163 -1.200845
C -0.193894 -0.387423 -0.337195
C -0.243189 -1.519550 2.010105
O 0.781877 2.990882 -1.490903
C -0.052075 -0.240318 1.193830
H 0.016633 -1.368070 3.065600
H 0.628480 2.261609 0.462034
H -2.430237 -1.346636 2.220531
H -1.240537 -0.804469 -0.668136
H 1.951182 1.562092 -0.441672
H -0.746993 0.503429 1.492510
H -1.938113 -2.348960 0.885631
H 0.532746 -1.352849 -0.598802
H 0.499449 -2.391862 1.702729
H 0.017725 -0.287830 -2.976245
H -1.753251 -3.006327 2.385965
H 1.137056 3.781289 -1.142292
H -1.010712 1.330623 -1.257461
H 1.016138 1.132536 -3.118981
H 0.929548 0.093857 1.442055
H 1.663567 -0.201649 -2.318752