23
H14 C8 O1
C -1.496399 0.213092 -0.686550
C 2.384185 0.215228 1.101930
C 0.512550 1.617766 -0.042022
C 0.968786 0.059600 -1.216821
C -1.191286 -0.460229 0.670435
C -0.268172 1.084036 -1.238582
C 1.152399 0.292619 0.290934
C -1.860409 -1.887441 0.672637
O 0.224251 -0.549266 1.025212
H 1.806959 0.410470 -1.791527
H -2.906739 -1.786523 0.634946
H -2.272746 0.895261 -0.543264
H 1.276730 2.348872 -0.302110
H 2.258445 0.635522 2.097605
H -0.429008 1.595505 -2.089486
H -1.553239 -2.337193 1.570299
H 3.155812 0.823969 0.577511
H 0.789192 -1.028430 -1.558325
H -1.493294 -2.447798 -0.159993
H -1.554455 0.170799 1.482847
H 2.712536 -0.828600 1.146602
H -0.096348 2.194120 0.780152
H -1.738295 -0.494624 -1.476924