19
H10 C6 O3
C 0.805219 -1.132467 1.524450
C -0.303435 0.372621 -1.548821
C 0.434088 0.356836 -2.628849
O -0.655187 1.011799 -2.762331
C -0.775813 0.282533 0.728502
O -1.197821 -0.838149 2.774748
C 0.242599 0.361559 -0.175527
C -0.220331 -0.099922 2.085179
O 0.987700 -1.007130 0.098749
H -1.091525 -0.553115 -1.585371
H 1.327602 0.936021 -2.706227
H 0.984183 1.188750 -0.137661
H 0.429620 -2.171128 1.709220
H 0.245116 0.718198 2.561894
H -1.767504 -0.216811 3.219754
H 1.820552 -1.080023 2.038802
H -1.849321 0.309387 0.687904
H -0.738063 1.818598 -1.160784
H 0.579435 -0.591607 -3.286463