16
H7 C5 N3 O1
C 0.450443 -1.510879 -1.602597
N -1.191495 -1.557212 0.228365
C 0.184737 -1.260893 -0.155322
C 0.018084 0.072657 0.427780
C -0.541869 1.264397 -0.106275
O -0.417538 3.571816 0.668924
C -0.256437 2.247221 0.754071
N 0.469208 1.706617 1.877744
N 0.521144 0.365007 1.620829
H -1.169790 1.299423 -1.003213
H -0.030554 3.972980 1.441715
H -1.123593 -2.232548 0.965931
H -0.201361 -1.019494 -2.261750
H 0.340711 -2.627393 -1.761778
H 1.475283 -1.174403 -1.881771
H 0.974606 -1.837250 0.493988