19
H11 C6 N1 O1
C -0.187999 1.120026 1.158775
C 0.307675 0.016272 2.267617
C 0.564175 -0.611170 -0.754571
C -0.450730 0.457758 -0.213069
C 0.148919 -0.221742 -2.068856
O -0.842502 -0.209234 2.718108
C -0.331563 1.083815 -1.675679
N 0.152756 -2.032745 -0.550180
H -1.486842 0.056307 -0.166949
H 0.510405 1.921286 -1.769107
H 0.687520 1.797959 1.022646
H -0.466271 -2.100867 0.263762
H 0.341055 -0.732836 -3.090671
H 0.788453 -1.025756 1.982315
H 0.889659 -2.559608 -0.648864
H 1.612296 -0.343591 -0.540284
H -1.197013 1.537118 -2.106863
H -0.936943 1.674000 1.495577
H 1.093059 0.447229 2.980169