23
H14 C8 O1
C 0.365038 -0.117909 -0.124511
C 0.450570 2.567866 -0.868103
C 0.386477 -0.288021 1.372023
C 1.263046 -1.412260 -0.600663
C -0.816135 -0.999132 1.878576
C -1.236778 -0.147656 -0.384483
C 1.009585 1.115403 -0.758525
O 0.799247 1.062065 -2.089897
C -1.753613 -1.127722 0.679950
H -1.231930 -0.409643 2.675970
H -1.819068 -2.079046 0.194729
H -0.612402 2.562530 -1.228762
H 2.385015 -1.324454 -0.253666
H 1.312748 -1.433760 -1.620031
H 2.085395 1.086290 -0.514216
H 1.038969 3.129971 -1.579977
H -1.683594 0.859099 -0.246247
H -1.475796 -0.409702 -1.462885
H 0.489857 3.054779 0.172028
H 1.263443 0.037499 1.927820
H -0.622224 -2.003655 2.149240
H -2.755927 -0.797910 0.979547
H 0.973355 -2.288903 -0.193044