18
H9 C6 N1 O2
C -0.605915 1.126678 -0.397622
C -0.361316 -1.519752 -0.376810
C -0.776948 -0.196712 0.355874
C 1.651461 -0.694644 0.769477
O -1.845512 0.063245 2.457566
C -1.964949 -0.156618 1.169648
C 0.464769 1.521142 -1.341048
N 0.184298 -1.117059 0.813043
O -1.460733 2.099314 -0.134466
H 0.246658 2.434276 -1.953593
H -2.902914 -0.394412 0.667067
H -1.070099 -2.367998 -0.301879
H 1.410936 1.678139 -0.753625
H 0.225259 -1.437878 -1.221899
H 2.207896 -1.690719 1.100217
H 2.023198 -0.434872 -0.189634
H 1.851407 0.011107 1.507283
H 0.646649 0.699470 -2.030154