21
H12 C8 O1
O -2.482359 -0.753893 -0.660362
C 0.327876 -0.110997 1.374477
C -0.509040 0.759513 -0.641185
C 1.947809 0.168668 -1.528247
C -1.229049 -0.345372 1.575544
C 0.199606 1.263434 0.668488
C 0.223963 -1.035858 0.058620
C 0.529195 -0.200474 -1.187948
C -1.322265 -0.433627 -0.003172
H 2.720899 -0.506539 -1.192543
H -0.976270 1.560628 -1.179706
H 0.488233 -2.087060 0.287354
H 2.062192 0.037923 -2.679032
H -2.737853 -1.535977 -0.395383
H -1.361370 -1.438965 2.019230
H 1.173146 1.703027 0.521823
H 1.063896 -0.266653 2.055974
H -0.085256 -0.806092 -1.993294
H -0.334033 1.997639 1.234879
H -1.768217 0.254921 2.188815
H 2.205207 1.179831 -1.399621