17
H9 C5 N1 O2
O 1.940383 1.830535 -0.257629
C 0.245537 0.376187 -1.152969
C -0.424980 -0.052047 1.347310
C -0.522531 -0.968744 -0.950539
N -1.952644 -1.047152 -0.526197
C -0.815986 -1.191889 0.481847
C 1.319261 0.554588 -0.137916
O 0.973314 0.344418 1.208233
H -0.481078 -0.309430 2.477891
H -0.201737 -1.797459 -1.527170
H 0.716679 0.355214 -2.226893
H -2.501276 -0.848116 0.127381
H -0.468100 1.303408 -1.116085
H 2.149014 -0.141158 -0.371353
H 1.497918 2.319667 0.453480
H -1.122988 0.821773 1.206439
H -0.780144 -2.197078 0.873873