18
H9 C7 N1 O1
C -0.204010 -1.282268 -1.587927
C 0.794660 0.222212 0.371173
C 0.001838 0.471884 1.722035
C -1.318764 -0.268078 1.191224
N -1.586842 0.226173 -0.183500
C 1.288510 1.451898 -0.351516
O -0.813521 -1.569463 0.850209
C -0.001222 -1.902976 -2.616873
C -0.379560 -0.654204 -0.174369
H -2.268797 -0.165563 -0.670545
H 0.338372 2.064372 -0.678006
H 1.908912 2.003659 0.294060
H 0.406122 -0.095575 2.527324
H 1.741194 1.268611 -1.319885
H 1.655507 -0.500365 0.501535
H 0.178088 -2.432748 -3.455630
H -0.172977 1.495121 1.987421
H -2.209143 -0.472270 1.817000