21
H12 C8 O1
C -1.057672 -1.357946 -0.652697
C 0.749149 -1.083413 1.019351
C 1.886932 1.153009 1.425124
C 1.092587 0.270641 0.436754
C -0.839798 0.087516 -1.056499
C -0.155795 0.917871 0.020205
O -0.343555 0.330895 -2.338527
C -2.262174 -0.377002 -0.786626
C -0.308481 -1.729020 0.552376
H 1.358254 -1.481951 1.856561
H -1.018473 0.758439 -2.868385
H 2.828861 0.721145 1.664799
H -0.685784 -2.673921 1.177677
H 0.086817 2.014732 -0.371490
H -1.014393 -2.081213 -1.437960
H -2.897270 -0.523203 -1.645482
H 1.766680 0.093015 -0.408461
H -2.812107 -0.102777 0.080505
H 1.361989 1.485057 2.197493
H 2.197164 2.120551 0.882541
H -0.812885 1.046194 0.872725