15
H6 C7 O2
O 0.081942 -2.761853 1.302798
C -2.801668 -0.184150 1.142466
C 0.129761 1.063895 -1.495558
C 0.623373 0.597269 -0.082909
C 1.828366 -0.200145 -0.133563
O 1.764187 -1.498093 0.258537
C -1.641694 -0.324312 0.800799
C 0.558726 -1.704787 0.804138
C -0.219962 -0.460763 0.568882
H -0.926146 1.609176 -1.339452
H 0.852370 1.807228 -1.846685
H -3.799648 0.052063 1.386780
H 2.819970 0.037663 -0.464743
H 0.693455 1.430256 0.579368
H 0.024278 0.232496 -2.176925