14
H8 C4 O2
C 1.371588 0.570586 -0.851899
C -1.350671 -1.230934 1.176667
C 0.215562 0.415028 0.097921
O -2.482537 -1.715570 1.083676
C -0.429909 -0.926448 0.001945
O -0.806261 1.358502 -0.191790
H 0.561684 0.647197 1.141760
H 0.308873 -1.793516 0.079345
H -1.008670 -1.091826 -0.966169
H 1.040588 0.405490 -1.884919
H 1.847117 1.597268 -0.755711
H 2.170421 -0.188510 -0.650245
H -0.878522 -1.140698 2.201915
H -0.507552 2.224533 -0.040883