18
H9 C6 N1 O2
O -0.320867 0.694513 2.273758
C -0.866351 -0.497481 0.305818
C -1.102103 -0.157774 -1.168168
N 0.223099 0.270395 -1.676764
C 0.403069 -1.305961 0.488716
C 1.113445 0.077492 0.417673
C -0.105014 0.743507 0.950352
C 1.266871 0.568878 -0.926638
O 2.265650 1.209679 -1.394692
H 2.090507 0.207663 0.987450
H 0.180804 0.658524 -2.714339
H 0.493554 -1.833617 1.517708
H -1.213736 1.238778 2.397938
H -1.948422 0.584987 -1.314134
H -1.328271 -1.074157 -1.710779
H -1.817753 -0.962994 0.772963
H 0.647076 -2.062295 -0.201738
H -0.233338 1.817599 0.637640