17
H8 C7 O2
C -0.485227 1.251944 -0.959490
O -1.182708 1.528719 0.181962
C -1.280305 0.232954 0.540432
C 0.252682 -1.907320 0.961601
C 1.302036 0.370935 0.200164
O 2.358873 0.141350 0.643790
C -0.870247 -0.321973 -0.868505
C 0.052311 -0.532998 0.364929
C 0.945193 1.507455 -0.706644
H -2.063402 -0.185462 1.159648
H -0.717154 -2.436064 1.050203
H 0.959266 -2.498323 0.418185
H 1.596638 1.543516 -1.636195
H 1.174885 2.479945 -0.212494
H -1.208787 -0.960880 -1.562927
H -0.960567 1.759326 -1.989408
H 0.615031 -1.770343 2.023910