17
H8 C5 N2 O2
N 2.089741 1.268552 0.308364
C -0.172771 0.342966 0.309562
N -1.024022 -0.583697 1.125380
C -0.720137 0.018318 -1.112165
C 1.291165 0.069585 0.750170
C -1.720275 -1.161931 -1.048132
C -1.762603 -1.374341 0.479908
O -2.336605 -2.406668 0.851382
O -2.287975 0.321416 -1.216428
H 1.260715 0.019859 1.821129
H 1.832516 2.104406 0.908877
H -0.199893 0.213485 -2.008939
H 1.988200 1.077024 -0.747854
H 3.053725 1.170791 0.630320
H -1.967599 -1.767522 -1.822183
H 1.508553 -0.883481 0.390864
H -0.268893 1.430319 0.461365