22
H14 C6 O2
C -0.166433 0.527182 -0.168615
C 0.890774 -0.498705 0.333800
C -1.583781 0.143348 0.141437
C -1.885607 -0.950289 1.093627
C 2.275303 -0.011009 0.596937
O 0.858099 -1.639254 -0.559790
C 0.102442 0.796481 -1.682780
O 0.208397 1.763946 0.574401
H 2.620833 0.754276 -0.195955
H 3.044803 -0.865949 0.624164
H -2.133552 -0.171324 -0.802756
H 0.615647 -0.944962 1.375044
H -0.103228 -0.079614 -2.285915
H 1.493196 -1.486344 -1.317787
H -1.510470 -0.709238 2.120729
H 1.039339 1.146234 -1.834556
H -2.135796 1.079747 0.423880
H -0.585703 1.617723 -2.025293
H 2.313206 0.525276 1.533723
H -3.021715 -1.083772 1.306276
H -0.404275 2.358231 0.348938
H -1.525675 -1.909595 0.716753