13
H7 C4 N1 O1
C -0.654169 0.526157 -0.146059
C 0.772847 -1.129493 1.234162
C -0.296452 0.095991 -1.497775
C 0.215026 0.268420 1.073636
H -1.702654 0.565551 0.109072
H 1.419585 -1.411540 0.403194
H 0.613444 -0.451186 -1.701393
H -1.121092 -0.143885 -2.176090
H 1.302386 -1.209963 2.182097
H -0.045770 -1.871941 1.236927
H -0.822939 2.095654 -1.468093
N -0.105764 1.505435 -1.093078
O 0.425539 1.160800 1.843385