21
H12 C8 O1
C -0.731273 1.226992 -1.750050
C -0.489822 -1.756510 -0.920071
C -0.231356 0.688392 -0.493759
C 1.139795 -0.942989 0.751312
C -0.990282 0.840214 0.725511
C 0.529931 -0.668034 -0.611058
C 0.032763 1.024271 1.790578
C 1.168370 -0.014980 1.808860
O 0.262476 1.803881 0.317984
H 0.022117 1.208958 -2.519302
H 0.112881 -2.774024 -1.033661
H -1.506253 0.625113 -2.172053
H -0.984371 -1.629171 -1.777980
H -1.079837 2.239028 -1.681266
H -2.032361 1.053721 0.826549
H 1.278900 -0.639576 -1.384909
H 2.084935 0.574859 1.891991
H -0.259826 1.510124 2.700803
H 1.085786 -0.500359 2.831779
H 1.737012 -1.875351 0.798525
H -1.149572 -1.994531 -0.099779