17
H10 C5 O2
C -0.052706 -0.157477 0.897836
C -1.260348 0.721070 0.993018
C -0.061591 0.908863 1.949579
O 0.201906 -0.891993 -1.347627
C 0.783185 -0.045849 -0.350809
C 0.937576 -1.149722 -2.463737
O -2.368592 0.048644 1.482629
H 1.831598 -0.400563 -0.171106
H 0.846140 1.027528 -0.764415
H 0.287972 -1.679763 -3.140061
H -2.933361 0.683739 2.002548
H 1.886539 -1.647413 -2.255848
H 1.103986 -0.205799 -3.031331
H 0.559623 1.819318 1.745714
H -1.398273 1.467080 0.263294
H -0.160068 -1.164010 1.232795
H -0.203557 0.666336 2.957532