18
H9 C6 N3
C -1.644424 1.076316 0.889595
C 1.071887 -1.194847 0.271020
C -0.334320 0.415573 0.414782
C 1.598474 -0.049916 -0.586597
N 2.764873 0.038984 -1.323615
N 1.590775 -2.440993 0.402500
C -2.734936 0.078616 0.446484
N -0.061244 -0.864203 0.898353
C 0.623581 0.926006 -0.391466
H -2.509665 -0.616614 -0.408701
H -1.665347 2.067198 0.451445
H 3.287902 -0.765045 -1.468033
H -3.283622 0.521775 -0.063699
H 2.412823 -2.560191 -0.115249
H -1.621527 1.161981 1.960744
H -2.961505 -0.577383 1.250132
H 0.556916 1.900215 -0.845801
H 2.909331 0.882529 -1.781896