23
H14 C7 O2
C 0.037902 0.010284 0.397690
C 0.384281 -2.450262 -2.240926
C -0.916758 0.448503 1.476403
C -0.881148 1.157345 0.137075
C -0.381681 2.629070 0.111038
C -0.286589 -1.288919 -0.347771
O -0.338595 0.967484 2.599772
C 1.516087 0.133289 0.593861
O 0.177315 -1.203667 -1.662437
H 1.794760 0.897761 1.301130
H -0.446565 -3.169563 -2.055892
H 0.397787 2.755958 0.890957
H -1.162866 3.287425 0.257350
H -1.386982 -1.457894 -0.465696
H 0.629465 -2.399654 -3.271767
H -1.772615 -0.199173 1.615212
H -1.020052 1.560369 3.023187
H 1.207156 -2.880251 -1.636605
H -0.029775 -2.160067 0.229856
H 2.022174 -0.792450 0.846726
H 2.015199 0.372705 -0.402894
H 0.105363 2.798651 -0.902787
H -1.663842 0.983072 -0.493439