15
H6 C5 N2 O2
C 0.621894 -0.380345 -1.557207
C -0.325243 0.317301 0.818178
O -1.189425 -1.926412 0.954437
C -0.869018 0.694366 2.191620
C 0.362762 1.185843 0.062494
C -0.601206 -1.018174 0.406064
O -0.052988 -1.342400 -0.899799
N 0.882392 0.804533 -1.067125
N 1.083431 -0.744874 -2.748758
H -0.461674 -0.040659 2.964793
H 1.058020 -1.786567 -3.038404
H 0.582146 2.201407 0.412597
H -0.678972 1.686165 2.520971
H -2.029076 0.454667 2.259267
H 1.616960 -0.104811 -3.279114