25
H16 C8 O1
C 1.131957 0.310010 0.900974
C -1.482986 -1.473826 -1.383312
O -1.464282 0.869423 0.535164
C 0.530258 -0.570171 1.970946
C 1.402176 1.711891 1.276435
C -1.101627 -0.229349 -2.169758
C -0.491713 1.049168 -0.402654
C 0.344753 0.028074 -0.921160
C 0.025975 -1.562755 -0.876406
H -1.438929 1.544045 1.231657
H 2.451989 1.950118 1.235487
H -0.667633 -0.422014 -3.013554
H 0.611695 -1.597145 1.650987
H -2.004204 0.342910 -2.260922
H -0.522497 -0.298036 2.212021
H 1.157492 0.258375 -1.382683
H 0.919514 2.455716 0.548644
H 0.685420 -2.024701 -1.635199
H 0.127736 -2.082796 0.016432
H -2.182035 -1.375227 -0.543812
H 1.029192 2.017930 2.248880
H 2.234990 -0.173917 0.869837
H -1.826825 -2.303479 -2.080413
H 1.104359 -0.325606 2.936848
H -0.574768 1.901364 -0.964405