15
H6 C6 O3
C -0.952148 -0.899527 0.806423
C 0.478967 1.079501 0.675996
C -0.022517 0.434028 -1.001386
C 1.308172 -0.170377 -0.839799
O -0.586932 0.462572 -2.238437
C -0.807880 0.527643 0.212360
O 2.102952 -0.617255 -1.661441
C 1.307537 -0.230720 0.719530
O 0.377730 -1.313840 1.155417
H -1.447169 -1.655411 0.182071
H 0.670089 2.019819 1.048430
H -1.560496 0.237467 -2.343040
H -1.480314 -0.824851 1.787143
H 2.282762 -0.275638 1.267846
H -1.670767 1.226568 0.228874