18
H9 C6 N1 O2
C 0.032288 -0.120508 2.098610
C -1.099659 0.368815 -1.045576
C 1.179038 0.063538 2.968061
C 0.422638 -0.048249 0.624467
O 1.057592 1.132154 0.194684
C -0.877179 -0.383408 -0.085210
C -0.336709 0.043464 -2.287319
O -0.220398 -1.308289 -2.541086
N 2.108784 0.263400 3.597978
H 0.006892 -1.530443 -3.422321
H -0.688063 0.668894 2.338219
H -1.659809 1.094697 -0.693042
H 1.108505 -0.837400 0.334399
H 0.928869 1.862385 0.851786
H -0.944970 0.628067 -2.980736
H 0.636768 0.531826 -2.195333
H -0.372628 -1.175773 2.272036
H -1.281913 -1.253167 -0.029586