17
H8 C6 N2 O1
C -1.720159 -0.261108 -0.488246
C 0.382646 -1.013603 0.469148
N 0.228794 0.114280 1.367946
C 1.452497 1.093517 -0.423199
O -1.549825 -2.522525 0.463558
C 0.711914 -0.223525 -0.833870
C 0.149025 1.213850 0.444853
C -1.069548 -1.462660 0.200436
N -0.560421 0.641748 -0.738498
H 1.013475 -1.817479 0.734671
H -0.217568 2.164320 0.811756
H 0.903202 -0.782660 -1.786017
H 2.372233 0.995865 0.197762
H -2.468763 0.315965 0.214882
H 1.517646 1.795009 -1.193408
H -2.297894 -0.452613 -1.364627
H 1.152770 0.201620 1.922839