18
H9 C7 N1 O1
N -2.180039 0.068344 -0.193734
C 2.566014 -0.130347 -0.380389
O 1.178342 -1.604733 0.919479
C -1.098943 -0.588679 -0.809142
C 1.222938 -0.340038 0.115716
C -1.997523 0.246438 1.242911
C 3.616633 0.050095 -0.875738
C -1.885613 1.411045 0.331149
C 0.130525 -0.200106 -0.954339
H 4.559577 0.240365 -1.335236
H -1.343549 -1.621579 -1.171485
H -1.115725 -0.102664 1.741994
H 0.444447 0.261679 -1.860174
H -0.906623 1.873702 0.052453
H 1.445000 -2.280554 0.235713
H -2.898420 0.161954 1.830589
H 0.989679 0.465953 0.915689
H -2.726718 2.089108 0.194542