16
H7 C6 N3
C 1.103276 0.053050 1.434034
C 0.062839 -1.484460 -1.507318
C 0.546672 1.615765 -0.146688
C -0.923523 -0.267584 0.389289
N 1.039312 -1.410495 -2.290514
C -0.745040 1.052507 -0.297572
N -0.004518 -0.522375 1.437719
C -1.028860 -1.441792 -0.605572
N 1.472086 1.128742 0.619881
H -1.971039 -1.322850 -1.225164
H 0.787324 2.536673 -0.737359
H -1.464376 1.440785 -0.907257
H -1.994842 -0.220193 0.901970
H -1.076153 -2.368890 0.001594
H 2.348521 1.479433 0.776661
H 1.848289 -0.268319 2.156317