17
H8 C8 O1
C -0.200575 0.076796 1.290358
C 1.828040 -0.038366 -0.473564
C 0.607080 0.412005 -1.141201
C 1.130004 -0.569774 0.758875
C 0.794308 -1.354321 -0.472455
O 0.285615 -0.771619 -1.669540
C -1.508846 0.855691 -0.568843
C -1.556547 0.028046 0.714406
C -0.371665 1.462535 -0.917974
H -2.149458 0.513750 -1.358580
H -2.222788 0.531320 1.426230
H -1.951670 -0.994835 0.582197
H -0.076644 0.607022 2.215468
H -0.027740 2.444064 -0.824094
H 0.637918 -2.438718 -0.355449
H 1.910974 -0.959394 1.557060
H 2.872007 0.195773 -0.762904