18
H9 C7 N1 O1
C -1.353552 -1.093677 -0.962858
C -0.217690 1.445068 1.811400
C -0.466984 2.806231 2.301892
C 0.288624 -1.014172 0.955599
C -0.015543 0.308697 1.384001
N -2.467922 -0.948879 -1.273641
C 0.002492 -1.326515 -0.580148
C 0.914587 -0.836690 -2.677442
O 0.904740 -0.448487 -1.241561
H 0.297262 -2.398787 -0.732739
H -1.485677 2.788386 2.907331
H -0.083003 -0.740840 -3.144086
H 1.285081 -1.872794 -2.838205
H 1.334068 -1.256091 1.137466
H 1.615337 -0.221922 -3.154737
H -0.560416 3.478122 1.514766
H -0.289776 -1.771875 1.540276
H 0.298356 3.104210 3.052724