18
H9 C7 N1 O1
O -0.381641 2.487438 -0.639758
C 0.639611 -0.943529 -2.035897
C 0.221737 1.298268 -0.682057
C -0.785947 -1.063800 3.156094
N -1.564249 -1.540895 3.809016
C -0.182674 0.245078 -1.535390
C -0.738225 0.140796 -0.113021
C -0.321846 -0.301842 0.998547
C 0.187085 -0.613964 2.323806
H 0.931707 -1.441214 2.341139
H 1.381448 -1.204133 -1.289272
H 0.795581 0.227163 2.791415
H 0.138984 3.173107 -1.089456
H 1.321779 1.284658 -0.516725
H -0.954653 0.536515 -2.253745
H 0.089113 -1.860637 -2.179951
H 1.175168 -0.662041 -2.917952
H -1.952962 0.239059 -0.166784