19
H10 C7 O2
C 0.598392 1.696822 -0.199669
C -0.464792 -1.132878 -1.758786
C -2.147065 -0.123041 -0.550792
C 0.324731 0.335070 0.002399
C -0.671296 -0.402814 -0.608978
O -1.514058 -1.354961 -0.074542
C 1.508654 -0.515085 0.701342
C 0.990051 0.167632 1.944675
O 0.039239 1.143937 1.173751
H -0.871070 -2.031922 -2.082144
H 1.463215 2.189423 -0.088101
H 0.394679 -0.522027 2.583186
H 2.504040 -0.316772 0.411775
H 1.290354 -1.640954 0.640013
H -2.411242 0.554999 0.163615
H -0.047862 2.178722 -0.953626
H -2.809953 -0.314001 -1.369256
H 1.701507 0.662622 2.585827
H 0.122483 -0.574768 -2.520717