16
H7 C6 N1 O2
O -0.076450 -0.699405 -0.505378
C 0.310471 -0.538361 -1.748875
N 1.105734 -1.629225 -2.238485
C 1.115225 -0.357883 2.800073
C -0.849524 0.622836 1.402142
C 0.217144 0.145034 2.147651
C -1.055007 0.168934 -0.037889
C -0.670259 1.565047 0.279330
O -0.007226 0.337649 -2.480579
H -2.015344 -0.073927 -0.366631
H 1.473513 -1.474781 -3.172318
H -1.833439 0.747910 1.916425
H -1.381137 2.336161 0.129288
H 1.921878 -0.685068 3.473843
H 0.343415 1.875855 0.041712
H 1.400984 -2.340770 -1.640306