17
H8 C5 O4
O -1.628476 1.208471 0.191672
C -1.037252 0.199045 -0.110913
C -1.589687 -0.955672 -0.934719
O -2.930285 -0.786702 -1.030344
C 1.354434 -0.523419 -0.512746
O 2.257375 0.919532 1.606563
C 0.986393 1.210060 1.081645
O 1.585019 0.048883 -1.625890
C 0.408303 0.008341 0.481014
H -3.271603 -1.485090 -1.609481
H 1.741259 -1.642591 -0.408216
H -1.227912 -1.904404 -0.509652
H 0.359184 -0.773754 1.315936
H 0.301829 1.597482 1.856368
H 0.970791 1.983848 0.281872
H 2.758594 1.725242 1.808995
H -1.037992 -0.829272 -1.882129