17
H9 C5 N1 O2
C -0.059593 0.299546 0.755497
C -0.045588 -1.344296 -1.106068
C 0.918251 -1.976312 -2.136475
O 2.028069 -1.473558 -2.362134
C -1.577894 0.475406 0.952395
N 0.392817 -0.188184 -0.541333
C 0.634583 1.665319 1.030536
O -1.049298 -1.933303 -0.823435
H -1.768525 0.817453 1.946864
H 0.248397 2.439309 0.328411
H 1.244935 0.156957 -0.973959
H -2.059681 -0.495103 0.783967
H 1.743692 1.702832 0.903069
H -1.971287 1.226081 0.293410
H 0.512909 -2.935035 -2.618175
H 0.456193 1.950241 2.050915
H 0.352058 -0.387368 1.516509