18
H9 C7 N1 O1
C -0.133074 -0.987680 0.834567
C -0.212900 1.586060 -0.404810
C -1.007674 -0.579480 -0.437235
C 0.200586 -0.960447 -1.302994
C 1.049217 -0.630496 -0.131556
O -0.139486 2.747302 -0.724444
C 0.849830 0.893412 0.394636
C 0.169399 0.313284 1.680060
N -1.341812 0.800773 -0.526886
H -0.181521 -1.933493 1.225031
H -2.043119 1.099892 -1.168751
H 0.293384 -0.381516 -2.253963
H -0.627764 0.804322 2.086952
H 0.995551 0.043759 2.404123
H -1.941539 -1.229525 -0.561536
H 1.737920 1.527963 0.472281
H 0.282803 -2.031144 -1.592828
H 2.050188 -1.082985 0.007334