13
H4 C4 N2 O3
O 2.226331 0.647684 -0.682263
C 0.163727 -0.290543 0.151064
C -1.143475 1.441654 -0.682627
O 0.247323 1.705510 -1.063271
C -1.193446 0.248617 0.100163
N 0.510050 -1.340205 0.810644
C 1.017100 0.677331 -0.517704
N -2.227857 -0.433086 0.591991
O 1.835255 -1.783173 0.680581
H -0.208306 -2.070737 1.075132
H -1.698765 1.465950 -1.624447
H 1.905631 -2.600735 1.255831
H -1.433579 2.331760 -0.095095