23
H14 C9
C 0.880754 -2.197128 1.203155
C 0.458359 -0.885449 -0.884228
C -1.786771 1.965928 -1.837648
C -1.085659 0.966826 -0.993436
C 1.938103 0.211312 0.756110
C -0.345044 -0.135304 -1.543485
C -0.532107 -0.038422 1.221675
C -1.109149 0.991054 0.400014
C 0.677928 -0.731325 0.608075
H -2.617594 1.475022 -2.344586
H -1.312649 -0.785680 1.471903
H -1.714698 1.835739 0.894614
H -1.097288 2.415462 -2.595997
H 2.837078 -0.300661 0.329244
H 2.133994 0.220544 1.924516
H -0.079720 -2.736557 1.020547
H -0.211808 0.417940 2.207416
H -0.457953 -0.248449 -2.629729
H 1.809783 1.138139 0.380024
H 1.023505 -2.029801 2.280594
H 1.035765 -1.669196 -1.408301
H -2.179791 2.785432 -1.243485
H 1.734980 -2.665407 0.783057