17
H8 C7 O2
C -0.287613 0.097658 -1.262308
C 1.034019 0.022887 -0.916361
O 1.867033 -0.924838 -1.758191
C 0.185568 -0.143186 1.319847
C 1.251166 -0.056913 0.467107
O -1.285769 0.078248 -0.505032
C -2.395433 -0.250941 1.518240
C 2.145110 0.441086 -1.818526
C -1.174147 -0.132066 0.823340
H 1.894128 0.979703 -2.739756
H 3.056946 0.737399 -1.411009
H -3.261251 -0.287569 0.907046
H -2.369621 -1.096405 2.167193
H 2.248261 -0.060294 0.920789
H 0.219046 -0.251494 2.425872
H -0.565481 0.239182 -2.348956
H -2.561958 0.607553 2.210726