14
H5 C5 N3 O1
N 0.819272 -0.857338 1.519460
C 0.358393 1.291266 2.097592
C -0.124532 0.428811 -1.251900
O 0.036608 1.716980 0.904694
C 0.163978 0.731868 0.140539
C 0.543891 -0.600417 0.311846
N 0.211173 -1.390907 -0.890893
N 0.654623 0.061472 2.414837
C -1.013431 -0.721033 -1.392534
H 0.292704 1.986663 2.928930
H 0.909061 -1.700391 -1.515467
H -1.270215 -1.075660 -2.394576
H -1.847125 -0.829507 -0.700460
H 0.265600 0.958177 -2.172088