13
H4 C5 N2 O2
O 0.172790 -1.584980 1.649529
C -0.004950 2.955894 0.571136
O 0.026305 0.688031 1.455259
C -0.080892 -1.418502 -1.575908
N -0.108434 0.904890 -0.814131
C 0.124926 -0.504772 0.833504
N -0.048460 4.075765 0.861212
C 0.010293 1.598884 0.394505
C -0.063261 -0.306169 -0.516263
H -1.051676 -1.360695 -2.079794
H -0.054392 -2.432485 -1.125595
H 0.786954 -1.328517 -2.217098
H 0.290804 -1.287354 2.563649