17
H9 C5 N1 O2
O 1.884746 1.517018 1.374526
C 1.391411 -0.721466 -1.496950
C -1.215026 0.124056 0.210217
C 1.170247 0.681230 0.788677
C -2.646709 0.325455 0.585304
N -0.189319 0.761953 0.943268
C 1.742076 -0.452093 -0.121581
O -1.097658 -0.575908 -0.761129
H 2.188543 -1.229635 -2.046762
H 1.611020 -1.340805 0.499561
H -3.067744 -0.683058 0.800933
H -3.137121 0.782647 -0.179011
H -2.723536 0.824095 1.546297
H 2.869364 -0.236247 -0.023818
H -0.542604 1.383295 1.691462
H 1.263647 0.184813 -2.056591
H 0.498654 -1.345336 -1.754422