15
H7 C4 N3 O1
C 2.646931 0.151684 -1.383398
O 1.253681 -0.449753 0.526593
C -2.036061 -0.242898 1.608273
C -0.291613 -0.155158 0.339961
N -0.655813 -0.622553 1.747476
N 0.245575 0.192928 -1.273048
C -1.884638 0.249421 0.169561
N 1.396952 -0.005486 -0.707561
H -2.376230 0.471065 2.401321
H -2.413752 -0.274360 -0.594979
H 2.369844 0.409537 -2.444814
H -2.698440 -1.114260 1.710756
H 3.186639 0.850044 -0.805823
H 3.228564 -0.846129 -1.326080
H -1.971701 1.385898 0.031761