15
H8 C4 O3
O 2.853016 -2.124040 1.763600
C 0.109035 0.564920 -0.603348
C 0.306965 0.117674 0.894418
C -1.379361 0.650821 -1.012972
O 1.587819 -0.440274 0.989039
C 1.807355 -1.639417 1.628745
O -1.343399 1.141356 -2.346398
H -2.208664 1.219403 -2.652355
H 0.147968 0.902565 1.579349
H -1.748727 -0.397972 -0.992847
H 0.604379 1.592607 -0.734341
H -0.400995 -0.668535 1.137020
H -1.903263 1.228822 -0.324188
H 0.844565 -2.061442 1.928578
H 0.723286 -0.086491 -1.254307