20
H12 C6 O2
C 0.656266 0.039167 -0.860123
C -0.888804 1.557111 2.352260
O -1.628122 -0.033886 -1.665578
C -0.399980 -0.072042 -1.912808
C 0.849229 -2.327878 -1.287109
C 0.341073 1.033352 0.245871
O 0.928665 -1.335546 -0.354267
C -0.499398 0.429666 1.361018
H -1.314425 1.170326 3.296203
H 1.339671 -2.108728 -2.249013
H 1.268384 1.448738 0.611690
H -0.044202 -0.033354 -3.000697
H 1.662889 0.288502 -1.316528
H -0.314919 1.792901 -0.260010
H -1.691963 2.163741 1.936674
H -0.220855 -2.521443 -1.546893
H 1.274897 -3.265454 -0.956561
H -1.354794 -0.110298 1.082968
H 0.140399 -0.338214 1.889983
H -0.104000 2.223359 2.632935