21
H12 C7 O2
C -0.344740 0.340635 2.095043
O -0.549273 1.048739 3.089332
C 0.371321 -0.790767 -0.912166
O 0.225882 -1.540949 -3.074394
C 0.285396 -0.386852 -2.399110
C 0.837028 0.569908 1.308636
C -0.917536 -1.456695 -0.382357
C 0.916823 0.393757 -0.096557
C 0.158517 1.587208 0.421811
H -1.700168 -0.768135 -0.319308
H 1.974806 0.672175 -0.505996
H -0.993531 -0.575553 1.848694
H -0.852701 1.623592 0.132125
H 1.185786 0.187832 -2.742582
H 1.711915 0.805433 1.902496
H 1.225954 -1.545867 -0.952889
H -0.647603 0.184460 -2.496093
H -0.798603 -1.975925 0.574753
H -1.230868 -2.213640 -1.073978
H -1.499303 1.281969 3.161014
H 0.640908 2.558693 0.421559