14
H5 C6 N3
C 0.682340 -0.932214 1.539528
N 1.784814 -0.065657 -0.957403
C -0.175529 -0.196911 0.648597
C -1.562050 1.011848 -1.293387
C 0.451462 0.198143 -0.645679
C -2.131621 0.648846 -0.111156
C 1.361012 -1.587866 2.343304
N -0.271046 0.776445 -1.508135
N -1.332085 -0.042075 0.854167
H 2.367613 -0.391575 -0.269316
H -2.170664 1.504290 -2.036830
H -3.157561 0.804378 0.154324
H 1.980491 -2.052402 3.024462
H 2.172829 0.324746 -1.742503