14
H6 C5 N2 O1
N 0.248145 -0.745745 -0.886852
C 0.218950 0.438538 1.306070
C 0.134580 -0.417632 -2.264874
O 0.461051 -1.051593 -3.233829
C -0.028810 0.366870 -0.280986
C -0.519255 0.959700 -2.218179
C 0.037395 -0.864196 1.955924
N -0.462436 1.413738 -0.921371
H -0.393960 1.162593 1.648582
H -0.986437 -1.252283 1.893857
H -0.904863 1.510884 -3.022568
H 0.714220 -1.623121 1.556800
H 1.238921 0.866758 1.446558
H 0.242498 -0.764488 3.020866