15
H6 C7 O2
O -0.072565 -2.125543 -1.442142
C -0.774162 -0.552728 1.004559
C -0.858801 -1.289037 -1.214167
C 1.172269 1.314576 -1.125207
O 1.501143 1.556630 -2.163787
C -0.564447 -0.168681 -0.286531
C -0.299148 1.260565 -0.688850
C 1.086676 -0.927575 2.643069
C 0.178412 -0.786500 1.933846
H -0.443063 1.934749 0.147901
H -1.853607 -0.609849 1.241721
H 1.873217 1.181416 -0.214543
H -1.880027 -1.199599 -1.674853
H -0.950886 1.599711 -1.489687
H 1.884980 -1.188128 3.328708