16
H8 C5 N2 O1
C 0.941564 -1.591046 0.392136
C 0.603426 -0.572468 1.501174
C -0.835806 0.259436 -0.771346
N -0.687761 1.237692 0.216008
C -0.956829 1.139965 -2.073814
O 0.851693 -0.878421 2.739143
N 0.086388 0.672614 1.144164
C 0.097383 -0.468977 0.066382
H -1.180545 0.473716 -2.932281
H 1.977244 -1.592076 -0.048973
H 0.592857 -2.624929 0.388730
H 1.864692 -0.614418 2.839391
H -1.634429 -0.481145 -1.093292
H -0.115312 1.690385 -2.279550
H -1.808025 1.891322 -1.974682
H 0.203472 1.458351 1.886814