21
H12 C8 O1
C -0.166268 -0.207062 2.470072
C 0.052975 1.114442 -0.274160
C -0.829531 -0.195277 0.126937
O 1.065007 -1.354005 0.315071
C 0.883796 -0.916204 -1.123521
C 1.429263 0.487386 -0.886627
C -0.128070 -0.976507 1.177274
C -0.636927 -0.570624 -1.367225
C -0.729369 1.049853 -1.557811
H 1.282562 -1.533862 -1.797738
H -1.872611 -0.060407 0.459039
H 0.194395 1.922455 0.378357
H -0.117748 0.954587 2.419165
H -1.138263 -0.400026 2.953699
H -0.343709 1.493367 -2.453167
H 2.280743 0.493283 -0.220922
H -1.195240 -1.210140 -1.902991
H 0.627020 -0.531692 3.117884
H -1.817356 1.411302 -1.387076
H 1.657869 0.966458 -1.810291
H -0.498521 -1.937325 1.364042