18
H10 C6 O2
O -0.770509 2.232120 -1.694101
C -0.173615 0.745568 0.933122
C 0.116264 0.406347 -0.577363
C 1.856964 -0.997712 0.879773
O -1.450241 0.064583 1.221898
C -0.894643 -1.259011 0.856763
C 0.437414 -0.541438 0.507217
C -1.057054 0.867541 -1.446961
H 1.905835 -2.087071 0.880438
H 2.593933 -0.582533 0.196925
H -1.352081 -1.806406 0.001012
H -2.072724 0.831991 -0.976302
H 2.083243 -0.642898 1.930426
H 1.034080 0.599948 -1.074093
H -0.888173 -1.939187 1.733283
H 0.094314 1.588032 1.492876
H -0.342970 2.321393 -2.542260
H -1.119980 0.198745 -2.322665