16
H7 C7 N1 O1
C -0.869581 -0.539992 0.811810
C -1.451505 0.003148 1.924360
N 1.892614 1.749143 1.198936
C 1.246413 0.936735 0.868912
C -1.989420 0.360642 3.016059
O -0.965726 0.506868 -1.500884
C 0.058675 -0.054234 -1.042224
C 1.113708 -0.586691 -2.103825
C 0.491685 -0.232015 0.389842
H 1.096923 -1.110021 0.562981
H -1.412479 -1.361558 0.388600
H 0.745661 -0.186083 -3.066362
H 1.112459 -1.569185 -2.030663
H -0.656593 1.463205 -1.402547
H 2.110356 -0.087731 -1.887302
H -2.523197 0.707767 3.872299