16
H7 C6 N1 O2
O 1.744075 2.795135 -0.504882
C 0.248531 -0.206997 0.852604
C 1.126825 2.196935 0.241146
C 0.757969 0.298310 -0.987448
C -0.838934 -1.188425 0.658631
O -0.947518 -2.047827 1.485748
C 1.336461 -0.500498 -0.100240
N 0.231471 1.078952 0.014622
C -1.802751 -1.017222 -0.516333
H 2.190196 -1.233690 -0.086277
H 1.132194 2.514251 1.323102
H 0.556788 0.005737 1.936623
H -1.447524 -1.262937 -1.472830
H -2.287058 -0.007656 -0.531901
H 0.671542 0.393197 -2.006867
H -2.672270 -1.817267 -0.305686