14
H7 C4 N1 O2
C 0.638982 -0.852949 0.899582
C -0.009689 -0.155921 -0.378052
C 0.241494 0.448527 1.487660
O 0.263092 1.110528 2.609069
C -0.385711 -0.579015 -1.767218
N -0.306980 0.955539 0.259409
O -0.628549 0.509605 -2.638781
H -1.361010 -1.066206 -1.793725
H 1.731929 -0.990275 0.773069
H -0.909653 1.789977 0.182238
H 0.668658 0.452245 3.295028
H 0.141829 -1.735157 1.336004
H -0.487711 1.319896 -2.099439
H 0.403303 -1.206787 -2.164842