15
H6 C5 N2 O2
N -1.596585 0.465953 0.425773
C -0.437307 -0.264839 0.276690
O -0.284469 -1.502481 -1.646415
C -0.690630 1.715599 0.387775
O 1.694970 1.088398 -0.028411
N 2.043733 -2.137670 1.386017
C 0.476215 0.756264 0.184262
C 1.203263 -1.828867 0.854601
C -0.195372 -1.530465 -0.057780
H -0.770844 2.407243 -0.395504
H -0.535116 2.038025 1.478340
H 1.704180 1.817364 -0.711684
H -0.951314 -2.261346 0.311821
H -2.171127 0.459514 -0.510234
H 0.510426 -1.222668 -1.955249