15
H7 C6 N1 O1
C -1.033148 0.230210 1.306098
C -0.725690 -0.731501 0.185157
C 0.035858 0.183766 -1.042204
C 1.199117 -0.696777 -1.229221
O -0.835465 1.896243 -0.366398
C 0.769891 -0.718107 0.231879
C -0.008776 1.063480 0.494973
N -0.509613 1.212139 -1.608062
H -2.066727 0.646393 1.299667
H -0.759934 -0.036854 2.319993
H 2.110669 -0.254114 -1.558642
H -1.384256 -1.585868 -0.178058
H 0.833376 1.616292 0.989412
H 1.359783 -1.171875 0.937383
H 1.014921 -1.653449 -1.781993