22
H13 C8 N1
C 0.859904 1.845740 -1.045403
N -0.127629 -2.526713 1.032080
C 0.871760 2.092690 -2.604915
C -2.251587 -1.359403 1.238254
C 0.357478 -1.113440 1.402351
C 0.592124 0.222516 0.673707
C -0.974196 -1.315126 1.311215
C 0.174814 0.484258 -0.768616
C -1.867449 -2.363390 1.959114
H 1.731953 0.238097 0.605561
H -0.853998 0.546634 -0.977684
H 0.215676 2.624268 -0.594640
H 0.484583 -0.331548 -1.332108
H -2.110818 -3.149899 2.491887
H 1.151336 -1.288838 2.068181
H 1.765927 2.740356 -2.831690
H 1.760617 1.968752 -0.637394
H 0.362536 -3.138878 1.750453
H -3.179419 -0.983119 0.957759
H 0.020673 0.959155 1.363168
H 0.035348 2.686759 -2.902418
H 0.980366 1.161138 -3.158885