14
H6 C5 N2 O1
N -1.958512 0.206217 2.256489
C 0.152450 -0.031993 -0.522448
C -0.718683 -0.924136 0.308272
C -0.872690 0.034768 1.463294
O 1.654616 -0.539329 -2.081029
C 1.503530 0.394121 -0.703950
C 0.445476 -0.163871 -1.889607
N -1.110420 0.324734 0.020426
H 2.289961 -0.156362 -0.043421
H -0.340449 -0.025722 -2.723160
H -1.093292 -1.936062 0.090136
H 1.786637 1.462029 -0.863391
H -1.820837 1.046461 2.827420
H 0.082186 0.309113 1.860974