23
H14 C9
C 0.400505 0.643087 2.185742
C 0.372652 -0.778139 1.709430
C -0.073696 -0.654845 -0.942977
C 1.865775 0.833231 0.177404
C 0.425668 0.276184 0.497842
C -1.144612 -1.650490 -0.968468
C -0.498431 1.281744 1.259697
C -1.173955 -0.819848 -2.173312
C -0.882328 0.538031 -1.751822
H -0.634415 -1.236332 1.918979
H -2.017300 -1.465854 -0.301401
H -1.472952 -1.097768 -3.142611
H 1.188370 -1.438036 1.842472
H 2.052310 0.844578 -0.832609
H 2.007481 1.817204 0.658413
H -1.552423 1.041063 -1.197167
H -0.955217 -2.726712 -1.179206
H -0.309795 1.104654 -2.513522
H -1.593164 1.062580 1.385188
H 0.898994 -0.994810 -1.334814
H 2.648764 0.135765 0.649166
H -0.299433 2.310794 0.986123
H 0.747192 0.973893 3.067410