20
H11 C6 N1 O2
C 0.847845 -0.626169 0.707833
C 0.122212 -1.952021 -0.915472
C -0.412342 1.700762 -1.137588
C 0.394122 -0.507436 -0.728023
N 1.724802 -0.188219 -0.374131
C 0.331920 -2.092994 0.598486
O -0.092876 2.211204 0.182076
C -1.093288 1.998457 1.148092
O -0.581025 0.259914 -1.251512
H -1.482868 0.893572 1.257442
H -0.570402 -2.156777 1.190908
H -0.909692 -2.234190 -1.216992
H 0.842896 -0.053021 1.605981
H -1.941112 2.665341 0.914845
H 0.876929 -2.582704 -1.504712
H -1.334472 2.207662 -1.451890
H 2.524134 -0.838364 -0.333094
H -0.676193 2.274213 2.122154
H 1.001133 -2.920356 0.955257
H 0.428285 1.941142 -1.769651