19
H10 C5 N2 O2
C 0.761639 -0.782402 -0.582894
N 2.111635 -0.924455 -0.370620
C -0.548718 1.066423 0.404272
O 1.745050 1.525576 1.202131
N -1.088615 1.556760 -0.858311
C -0.167340 -0.482680 0.479413
C 0.646147 1.960969 0.798013
C -1.375993 -1.473118 0.430254
O -2.052423 -1.229177 -0.826552
H -1.301080 1.193108 1.196022
H -2.056093 -1.192514 1.212638
H 0.545944 2.984484 0.729330
H -0.228154 1.682550 -1.554985
H -1.058084 -2.501638 0.380003
H 0.341999 -0.813446 -1.596094
H -1.627639 0.744060 -1.254420
H 2.225806 -1.909719 -0.042323
H 2.743575 -0.681740 -1.149842
H 0.382338 -0.723057 1.403964