17
H8 C8 O1
C -0.570903 -0.502007 -1.598020
C -0.941359 0.333454 -0.302846
C 0.023497 1.539669 -0.437942
C 0.038926 -0.922592 1.472477
C -1.292571 -0.254687 0.916052
C 0.526475 0.266667 -0.914253
C 1.311617 -0.608254 1.096635
C 1.642766 -0.332564 -0.158743
O -2.181700 0.584943 -0.084265
H -2.030879 -0.338642 1.590686
H 2.122580 -0.479358 1.909997
H -0.242605 2.231742 -1.196951
H -0.059464 -1.624988 2.303086
H 0.457756 2.112848 0.371916
H -1.023733 0.040215 -2.505945
H 2.585706 -0.551753 -0.666998
H -0.366082 -1.494680 -1.794886