13
H4 C5 N4
N -0.640451 0.679265 1.695675
C -0.399689 -0.232102 -2.149892
N -1.474868 0.817213 -0.375875
N -1.527161 1.230551 0.826771
C 0.634731 -0.432907 0.096172
C 0.514785 -0.014729 1.441234
C -0.436837 0.002573 -0.794412
C -0.381255 -0.382006 -3.342761
N 1.286798 -0.270709 2.418539
H 1.396314 -1.018637 -0.293719
H 2.151855 -0.801511 2.172600
H -0.423978 -0.641559 -4.393374
H -0.700258 1.064533 2.699062