20
H11 C7 N1 O1
C 0.152096 1.234747 0.842949
C -0.283862 -0.192662 1.211153
C -0.038255 1.077478 -0.755892
C 0.052790 -0.752706 -0.050281
C -1.255164 1.590370 -1.442663
N 0.710506 0.020549 -0.990962
C 1.576202 1.079545 0.246235
O 0.332115 -2.934767 0.926184
C -0.148027 -2.256203 -0.209875
H -2.160230 1.546824 -0.870914
H -0.209743 2.122595 1.320779
H -1.097808 2.633718 -1.775435
H 2.364028 0.411858 0.645676
H -1.267074 -0.215921 1.563965
H 0.352307 -2.638185 -1.162357
H 1.258033 -2.684696 1.164953
H 0.321071 -0.531722 2.112283
H -1.178143 -2.460143 -0.287011
H 2.010680 1.978587 -0.152206
H -1.491520 0.970722 -2.336585