20
H11 C7 N1 O1
C -0.075506 1.202477 2.907703
C -0.648625 -0.767213 -0.834841
N -1.198334 2.634574 -2.120954
O -0.130982 1.140860 0.601702
C -0.283576 0.333697 1.709312
C 1.103805 -1.752664 -2.154932
C -0.884960 1.801087 -1.385149
C 0.632266 -0.521658 -1.329538
C -0.365461 0.596450 -0.649448
H -1.474186 -0.881308 -1.620205
H -0.192786 0.584164 3.853163
H 2.140302 -1.668322 -2.508618
H 1.445272 0.142386 -1.371231
H 0.481167 -0.490557 1.753273
H -1.240762 -0.172726 1.830765
H 0.381199 -1.805822 -2.972598
H -0.832684 2.004670 2.989437
H 0.998612 -2.605385 -1.545365
H -0.749257 -1.431147 -0.059597
H 0.894495 1.656456 2.907113