19
H10 C7 O2
O -1.255397 0.683505 -1.278488
C -0.561409 -0.405367 -1.816174
C 0.501022 1.726553 0.376360
C -1.293264 -1.302213 -0.736894
O 0.833526 -0.348364 -1.471944
C 0.950803 -0.541046 1.715178
C 0.274741 0.284779 0.601494
C -1.168179 0.017756 0.035243
C 1.142908 0.663696 -0.552564
H -0.365030 2.294332 0.322936
H 0.166762 -0.647538 2.503877
H -2.321178 -1.518945 -1.092785
H 1.372388 2.270095 1.006905
H -0.680163 -2.167639 -0.411168
H 1.106882 -1.544601 1.345976
H 1.757535 -0.102001 2.114344
H -1.977304 0.354210 0.737926
H -0.699098 -0.527232 -2.924897
H 2.214471 0.809998 -0.475321