20
H11 C8 N1
C -1.516195 0.578625 -0.733941
N 1.549683 -1.215584 -1.557581
C -3.888716 1.186670 -0.166128
C -0.261045 0.283556 -1.168679
C 2.054636 0.554492 1.331104
C 0.719449 -0.090913 1.019449
C 0.679443 -0.535961 -0.552426
C 0.362624 -1.418633 0.569255
C -2.663897 0.834741 -0.426546
H 0.009010 0.677071 -2.202861
H 1.084183 -2.252521 0.801181
H 1.902585 1.576458 1.774329
H -4.489649 1.317540 -0.992591
H 2.634141 -0.003744 2.067844
H -0.700780 -1.777248 0.749978
H 2.517706 -1.332071 -1.016432
H 2.617096 0.713001 0.367067
H -0.112226 0.231159 1.745675
H -4.292678 1.328329 0.793948
H 1.794655 -0.654965 -2.402643