15
H6 C5 N2 O2
C -0.088247 1.427808 1.566190
N -0.327158 1.808164 0.173082
N 0.850383 -1.464522 0.663732
C 1.426933 -2.054891 -0.255054
C 0.019968 -0.632653 -0.045744
C -0.755630 0.451592 0.557761
O -0.491299 -0.194368 -2.376815
C 0.198877 -0.733608 -1.473463
O 1.082833 -1.741841 -1.545704
H -1.297441 0.309615 -2.072026
H 2.119149 -2.945539 -0.157745
H -1.841675 0.301750 0.725462
H -0.696600 1.761736 2.336143
H 0.942776 1.212318 1.780001
H -1.142845 2.494441 0.124189