21
H12 C7 O2
C -0.138928 -0.467067 -0.510599
C -0.353731 0.594423 1.676271
C -0.914640 -0.343883 0.620794
C 0.033535 2.232195 -0.113164
C 1.224810 0.298492 -0.096685
C 0.710955 1.358383 0.878264
O -0.415100 -2.226159 -2.370424
C -0.483089 -2.079895 -0.924528
O 0.907323 1.738272 -0.966640
H -1.033828 2.161461 -0.330003
H -0.392356 -0.081284 -1.450829
H 1.517999 1.834209 1.444126
H 0.164027 3.289869 0.080788
H -1.773835 -0.975571 0.838601
H 1.556996 -0.609050 0.662314
H 2.138582 0.242634 -0.587579
H -1.473534 -2.413434 -0.627838
H 0.075210 -0.026528 2.520926
H -0.538556 -3.122579 -2.526466
H 0.249741 -2.683717 -0.373582
H -1.061574 1.279284 2.156276