18
H9 C6 N1 O2
O 0.528804 -2.947142 -0.316436
C 0.395764 -1.281487 0.787758
C -0.044623 1.016337 -0.439900
C -1.272769 2.531233 0.724395
C 0.046256 2.187891 0.386296
C 0.824507 -0.219392 -0.122747
N -2.139804 1.654105 0.276194
C 0.530748 -1.594456 -0.959627
O -1.452224 0.736114 -0.374481
H 1.864838 0.019921 -0.048524
H -0.350921 -1.404583 -1.567542
H 1.370812 -1.691808 -1.635781
H -1.611818 3.358414 1.294044
H 0.899583 2.571712 0.838672
H 0.256678 1.195164 -1.498828
H 1.133594 -1.682170 1.490149
H -0.562255 -1.215439 1.312121
H -0.417142 -3.234416 -0.145735