23
H14 C7 O2
C 2.325670 1.202982 -1.388703
C -0.290633 0.106978 -0.356774
C -0.499264 -1.627982 1.589231
O 0.088473 -0.802201 -1.478541
C -1.795672 0.868702 -0.148299
C -1.153643 -0.890419 0.383409
C 0.880874 1.228407 -0.844151
C 0.764991 0.715808 0.538701
O -1.382241 -2.569676 2.189355
H 0.634813 -1.367268 -1.168186
H 0.405736 -2.157240 1.189908
H 2.977717 2.051511 -1.061715
H -2.150767 0.864769 -1.225879
H 2.846169 0.242858 -1.235158
H -1.578648 1.889480 0.171645
H -1.963693 -1.367449 0.009696
H -2.739805 0.708025 0.391332
H -1.888097 -2.882292 1.711283
H 1.527804 -0.042422 0.847379
H 0.391064 2.134528 -1.180578
H 2.225370 1.199293 -2.569098
H -0.166689 -0.968759 2.384030
H 0.540463 1.462364 1.251145