16
H7 C6 N1 O2
C 1.699758 0.188374 1.404231
C 1.034321 -0.409939 -2.047626
O 2.141072 -0.236478 -2.395705
C -1.624681 -0.053612 0.940556
C -0.790533 -0.754455 -0.164087
O 1.509226 0.120934 0.166820
C 0.451991 -0.175726 -0.600396
C -1.201128 1.126899 0.141337
N -0.769621 0.527031 -1.032136
H 2.676349 0.076872 1.754243
H -2.703920 -0.202345 0.747979
H 0.218340 -0.685553 -2.762925
H -1.305379 -0.204505 1.948315
H -1.331641 2.184428 0.343114
H -1.028769 -1.807046 -0.487199
H 1.024637 0.305104 2.043525