21
H12 C6 N2 O1
C -0.289978 -0.482380 -0.703649
C -0.578152 -1.378034 0.425579
N -1.899259 2.724437 -0.947034
C 1.187078 0.320370 -0.704532
C -1.085407 1.778393 -0.536366
O 0.030650 2.093503 0.320051
N -1.283290 0.408043 -0.892438
C 1.110857 1.180914 0.436701
C 0.473181 -2.209932 1.075649
H 1.943652 -0.516959 -0.582733
H 1.057493 0.689124 1.419231
H -0.216769 -1.060840 -1.760237
H 1.364723 0.888382 -1.617015
H -0.993295 -0.775095 1.252020
H -1.352296 -2.198378 -0.032906
H -1.502437 3.696694 -0.674632
H 0.024782 -2.822059 1.806177
H 1.255561 -1.537990 1.565515
H -2.256707 0.058260 -0.699643
H 1.035516 -2.747763 0.387663
H 1.974079 1.891329 0.462595