18
H9 C7 N1 O1
N -1.706693 -0.842481 1.337783
C 1.582856 0.244317 -1.352619
O -1.782381 -0.939830 -1.530140
C 0.391350 -0.213931 -1.870799
C 0.746880 -0.243121 1.003216
C -1.800133 0.607303 0.994076
C -0.747201 -0.504396 -1.031951
C 1.747887 0.534252 0.125299
C -0.725125 -0.227784 0.439784
H 2.745726 0.333288 0.520506
H 1.539783 1.610100 0.308703
H 0.305832 -0.396971 -2.937120
H 0.659834 0.086243 2.023202
H 1.050358 -1.281696 1.097270
H -1.572544 1.276440 1.824802
H -2.288226 -1.342083 0.672022
H 2.360284 0.416535 -1.891842
H -2.508458 0.883821 0.267788