17
H9 C5 N1 O2
C -0.726642 0.742234 0.922707
C -0.286492 -0.995266 -0.663356
O -2.566965 -0.925240 0.205506
N 0.664713 0.121212 -0.890440
C 0.078602 1.317281 -0.327977
C 2.030894 -0.217226 -0.510542
O -0.264648 -1.661132 0.564059
C -1.215750 -0.632648 0.375921
H 2.732811 0.563057 -0.769345
H -2.916044 -1.013389 1.097234
H 0.864707 2.025578 -0.005279
H -0.606942 1.774425 -0.996272
H -0.622428 -1.556806 -1.568328
H -0.121927 0.559036 1.829175
H 2.188656 -0.376426 0.576529
H 2.305529 -1.111712 -1.049463
H -1.538094 1.387006 1.209872