20
H12 C8
C 1.168041 0.395010 -1.700368
C -1.581943 1.148663 0.417796
C -0.750343 -0.056680 0.241751
C 0.777032 0.054070 -0.355865
C -0.344833 -1.274538 1.143096
C -2.004727 0.085650 -0.539023
C 1.674846 0.274629 0.919585
C 1.074542 -1.117691 0.665414
H 2.226234 0.475692 -1.770336
H -2.869643 -0.566716 -0.218097
H -1.301110 2.143216 -0.005610
H 1.730352 -1.958360 0.525955
H 1.321675 0.848840 1.762241
H 0.749723 1.295602 -2.030893
H 2.681517 0.391544 0.719948
H -0.839244 -2.181174 0.720360
H 0.872332 -0.345892 -2.430032
H -1.967184 0.228036 -1.595886
H -0.528902 -1.161618 2.186336
H -2.088331 1.321717 1.343647