18
H9 C7 N1 O1
C -1.807229 -0.776506 1.070660
C -1.354218 -0.528240 -0.411331
C -0.311774 -0.656598 1.494830
C 0.084394 1.142385 0.325687
C 2.210855 0.177232 -1.078735
N 0.726220 -0.073744 -1.104236
C -0.543731 0.704600 -0.963029
C 0.035178 -0.551684 -0.095420
O 0.009830 0.802645 1.629563
H 0.454971 2.211961 0.251911
H -0.857883 1.366898 -1.746415
H 2.455696 0.655543 -1.982956
H 0.236685 -1.327745 2.159764
H -2.150698 -1.859598 1.293865
H -1.906031 -1.091046 -1.208019
H -2.453666 -0.156077 1.585713
H 2.689926 -0.789151 -0.998996
H 2.481471 0.749072 -0.222867