17
H9 C5 N1 O2
O 1.776350 -2.978482 0.577291
C -0.425075 -0.186565 -0.007383
C 0.404196 -0.396456 -1.229626
C -0.624456 2.233099 0.106124
C -0.145183 -1.443342 0.832286
N -0.173384 1.019964 0.788075
C 1.088851 -2.055636 0.203381
O 1.369951 -1.424428 -0.909385
H -0.123954 2.435986 -0.905063
H -0.157021 -0.723487 -2.145325
H -1.035179 -2.164137 0.823510
H 0.778874 1.062678 1.021970
H -0.418431 3.130781 0.740938
H -0.023355 -1.172134 1.927041
H -1.736993 2.265435 -0.072484
H -1.502782 -0.139105 -0.295081
H 0.947575 0.535836 -1.456250