24
H15 C8 N1
C -1.710741 -1.217925 0.078220
C -3.209875 -0.912983 0.103981
C -0.624619 0.999226 0.107372
N -0.979578 -0.136902 -0.622389
C 2.586646 0.847360 1.307204
C 1.983509 -0.072357 0.567268
C 1.234431 -0.853601 0.203712
C 0.399885 0.186413 -0.567357
C 1.010620 0.827432 -1.849951
H -3.390544 0.024932 0.638735
H 2.143694 -1.207183 -0.313575
H -3.677724 -0.862541 -0.851329
H -1.295568 -1.298850 1.076308
H 3.099971 1.432243 0.551439
H -1.506562 -2.136417 -0.491784
H 0.172583 1.186689 -2.444738
H -0.653815 0.949706 1.233047
H 1.525797 0.038498 -2.399249
H -0.952307 2.017406 -0.254417
H 1.897942 1.382321 1.872130
H 1.685923 1.664071 -1.629341
H -3.741505 -1.708593 0.692369
H 3.188737 0.294886 1.955462
H 0.813039 -1.443854 1.036904