21
H12 C8 O1
C -1.884073 0.007021 0.065445
C -1.025233 1.078399 -0.561360
C 0.372066 0.941748 0.099506
C 1.019300 0.003474 -0.911745
C 0.092781 0.392266 1.504648
C -1.148354 -0.527165 1.263588
C -1.231798 -0.144816 -1.312777
C 2.205596 -0.886058 -0.410011
O -0.039711 -0.927833 -1.317308
H 2.507054 -1.479543 -1.275598
H -1.804821 -0.243202 -2.166004
H 1.343200 0.547796 -1.790110
H 3.038389 -0.230558 -0.197456
H -3.005642 0.090997 0.097924
H -0.750335 -1.618259 1.121708
H 1.945231 -1.512437 0.405882
H 0.887105 1.924350 0.070972
H -1.463511 2.057871 -0.887519
H 0.954555 -0.086719 1.940808
H -0.225598 1.235213 2.135391
H -1.786248 -0.622528 2.124012