21
H12 C6 O3
O 0.873420 -0.773216 2.010138
C 0.308949 -0.103325 -1.128435
C -0.569455 0.068501 0.174047
C -0.099778 -0.424905 1.514863
O -0.862417 -2.543962 0.585645
C 1.401637 0.893566 -1.282187
C -1.241442 -1.125542 0.912783
C -1.346878 1.419254 0.280426
O 2.053169 0.609305 -2.523896
H -2.003390 1.461670 1.124890
H 1.002235 0.289277 2.150844
H -2.337624 -1.008855 1.020175
H -0.656827 2.209202 0.345808
H -1.934470 1.491775 -0.627882
H -0.436286 -0.148585 -1.974882
H 2.050737 0.801085 -0.387551
H -0.761919 -2.373951 2.001477
H 0.985143 1.894028 -1.240035
H 0.682336 -1.167489 -1.027853
H 0.147506 -2.627524 0.723448
H 2.745354 1.159710 -2.651849