16
H7 C6 N1 O2
O -1.244873 0.543347 1.121179
C 0.052503 1.078601 -1.283299
N 0.817898 1.401309 -0.040944
C -1.168084 -0.594199 0.295316
C 0.215104 -0.978854 0.075570
C -0.535962 -0.366958 -1.042017
C 0.001536 1.146923 1.188648
C 1.048792 0.162009 0.733916
O 0.743534 -2.223532 -0.035522
H -0.694835 1.877550 -1.473496
H 0.680425 -2.744532 0.832599
H -0.858964 -0.921707 -1.845488
H 2.012671 0.011863 1.141212
H 0.709778 1.032925 -2.107301
H -1.954940 -1.293907 0.416315
H 0.175421 1.869167 2.023315