16
H9 C4 N1 O2
C -2.645457 0.846505 0.535914
N -1.368909 0.324239 -0.000902
C 1.322940 -0.832175 -0.475623
O 2.566256 -1.454969 -0.144249
C 1.622706 0.441050 -1.129090
O 0.550405 -0.688629 0.709475
C -0.620409 -0.167457 0.939801
H -2.980512 0.326177 1.487122
H 0.769002 -1.492579 -1.185784
H 0.789710 0.949437 -1.519472
H 2.178194 1.120082 -0.393906
H -2.600409 1.855036 0.722612
H 2.372212 -1.882720 0.729982
H 2.367526 0.283237 -1.976633
H -3.412877 0.636782 -0.246756
H -0.910408 -0.264014 1.947469