14
H5 C6 N3
C 0.829362 1.429692 -0.423914
N -0.215689 -0.549592 -2.965591
C 0.020934 0.176290 -0.417452
C -1.453844 0.479485 0.201844
C 0.742847 -0.985254 0.322629
C 0.921837 -0.714976 1.674053
C -0.143520 -0.164546 -1.831166
N 1.081672 -0.489733 2.842542
N 1.475342 2.348351 -0.366865
H 0.163904 -1.918531 0.182947
H -1.254675 0.704974 1.251764
H 1.687654 -1.159470 -0.210218
H -1.889825 1.264075 -0.388893
H -1.965984 -0.420769 0.128333