13
H4 C4 N2 O3
O -1.170252 -1.051771 0.424083
C 1.261914 -0.121934 -2.009443
C -0.218491 1.133405 1.513805
O 0.254720 -0.876593 -1.321186
C -1.610159 -0.680071 1.616127
N -1.083721 0.493866 2.196401
C -0.173502 -0.366226 -0.220243
N 0.396842 0.817050 0.323675
O -2.419747 -1.412553 2.120360
H 0.155761 2.042708 1.886103
H 1.482008 -0.788391 -2.833301
H 0.947570 0.845290 -2.335011
H 2.177073 -0.034794 -1.361355