18
H9 C7 N1 O1
C 0.018919 -1.570071 0.880696
C -0.644614 1.491005 -0.881873
C -0.015356 2.763757 -0.513138
C 0.029717 0.314935 -0.333165
C -0.110366 -1.226447 -0.604449
O -1.228084 -2.029634 1.299505
C 0.189574 0.031001 1.144257
C 1.076778 -0.464958 -1.071683
N 0.495070 3.766910 -0.138237
H 2.061887 -0.675067 -0.657376
H 1.117723 0.348769 1.599378
H -0.670223 1.441872 -1.962045
H 1.168118 -0.210879 -2.137217
H -1.215000 -2.134235 2.284848
H 0.851408 -2.116600 1.140343
H -0.804820 -1.677203 -1.274406
H -0.634120 0.401639 1.758371
H -1.686625 1.545219 -0.533802