15
H6 C6 O3
C -1.025152 1.520324 -0.084388
C -0.095456 -1.697391 1.536790
C 0.766694 0.458731 0.358378
C 0.842181 0.082240 -1.635973
O -1.194742 -1.508616 0.656245
C -0.094372 -0.708946 0.446100
O 1.803669 0.290174 -0.527697
C -0.342823 0.219409 -0.691370
O 0.077697 1.564703 0.955997
H -0.170452 -1.374640 2.532795
H -0.943437 2.438903 -0.651410
H 1.013751 0.877266 -2.397282
H -2.043627 1.417277 0.175642
H 0.478017 -2.666877 1.383520
H 0.928068 -0.912532 -2.057329