14
H5 C6 N1 O2
O -2.925336 -0.405065 0.071008
C 0.575323 0.403270 1.147532
C -0.189697 -0.408216 -1.118178
C 1.219924 -0.084152 -1.489686
C -1.868555 -0.212952 0.894752
C -0.509675 -0.024632 0.321057
O -0.993311 -0.777689 -1.927449
C 2.089489 0.421850 -0.539207
N 1.798890 0.591638 0.708041
H -1.908871 -1.129759 1.552063
H 1.525190 -0.229067 -2.474876
H -2.154540 0.658129 1.488761
H 3.114141 0.630120 -0.790672
H 0.227026 0.566512 2.156871