14
H5 C5 N3 O1
N 1.443966 -0.597791 2.165020
C -1.206113 0.067152 -2.163043
C 0.718334 -1.004489 -0.215118
O -1.385002 -0.248885 -3.302592
C 0.721246 -0.354260 0.905324
C -0.253736 -0.358204 -1.109197
N -1.653028 1.106415 -1.280137
N -0.222014 0.733644 0.941415
C -0.821959 0.665848 -0.285902
H -2.322553 1.794037 -1.376798
H -0.474584 1.245110 1.721952
H 1.949763 0.182007 2.470568
H 1.355427 -1.878693 -0.487560
H 2.150237 -1.351907 2.016061