16
H7 C4 N5
N 0.364618 -0.322131 2.435117
C 0.282156 0.298741 -1.191909
N -1.344433 -0.723322 1.196699
N -0.686110 -0.577681 -1.622200
C 1.150573 1.083793 -2.025583
N 0.519352 0.371258 0.172305
C -0.652139 -1.017192 3.132554
C -0.175243 -0.256910 1.238642
N -1.742075 -1.263362 2.273313
H 2.185632 0.811330 -1.897121
H -1.062913 -0.281173 -2.479504
H 0.868085 1.006081 -3.146369
H 1.358847 0.796772 0.463713
H -0.693404 -1.299671 4.161478
H -1.429103 -0.755646 -0.886541
H 1.056183 2.129126 -1.824579