18
H9 C7 N1 O1
C 0.850223 -0.505789 0.234454
C 0.524040 -0.076818 -1.206446
N 0.006191 -0.477599 2.536751
C 1.978278 -1.342777 0.553019
C -1.762525 0.680194 -0.375587
O -0.488524 -0.846282 -1.810341
C 0.009134 0.026137 1.319924
C -1.047682 1.117967 0.908113
C -0.706356 0.510623 -1.477427
H -2.491610 1.371151 -0.637318
H 2.087384 -1.665933 1.583722
H 1.891617 -2.314260 -0.075112
H -1.728446 1.263085 1.762705
H -0.525051 2.068249 0.747979
H 2.914945 -0.875410 0.196301
H -0.723297 1.262997 -2.273943
H 1.459165 0.109314 -1.739984
H -2.247485 -0.304827 -0.246821