12
H3 C5 N3 O1
N -0.817767 0.344649 -3.606406
C -0.712124 0.242613 -2.447407
O 0.261245 -0.381727 2.837675
N -1.137848 -0.390942 1.026887
C -0.425265 0.111859 -1.034619
C 1.178799 0.151100 0.785380
C 0.187153 -0.295139 1.690107
C 0.943067 0.241084 -0.565825
N -1.417048 -0.208284 -0.231169
H 2.135826 0.281271 1.168777
H 1.736045 0.518394 -1.260648
H -1.932081 -0.614901 1.637250