15
H6 C4 N2 O3
O -1.180032 -1.495806 -0.515992
C 0.453231 -0.106520 0.496952
C -0.171779 -1.488902 0.412649
O 0.764674 2.080516 0.344627
C 1.915022 1.458485 0.787309
N -1.415037 1.405663 -0.405913
O -0.376764 -1.784292 -1.493439
C -0.099867 1.103701 0.072052
N 1.775957 0.172432 0.868301
H -1.816783 0.463883 -0.728148
H 2.714028 2.066655 1.013729
H -1.465564 2.240570 -0.822934
H -1.029616 -2.287118 -1.865439
H -0.703034 -1.635980 1.402754
H 0.635543 -2.193267 0.433492