18
H9 C8 N1
N 2.440537 1.836273 -1.112236
C -1.831501 2.012442 -1.233545
C 0.210636 -0.639360 0.328737
C 0.740215 -1.864954 -0.167837
C -1.030973 0.949523 -0.747996
C 0.316684 0.638213 -0.558609
C -1.171877 -0.308816 -0.153487
C 1.462594 1.359963 -0.897115
C 0.591116 -0.263071 1.785000
H 0.526844 -2.044423 -1.264986
H 0.191066 -1.082183 2.459603
H -2.010185 -0.992855 -0.083540
H 0.322057 -2.761703 0.350518
H 1.800185 -1.957162 -0.035930
H -1.408135 2.854711 -1.599288
H -2.901908 1.899181 -1.178377
H 1.657906 -0.261605 1.950407
H 0.094725 0.625837 2.158643