23
H14 C9
C -1.077356 1.288297 -0.816256
C 1.146799 -1.141192 0.492217
C 0.340584 -2.367768 0.626198
C 0.397785 1.117828 1.437427
C 0.400891 1.539652 -0.424802
C 1.448892 -0.786001 -0.909467
C 0.752378 0.304474 0.127020
C -0.714845 1.919941 0.520969
C -1.921029 0.139688 -0.962481
H -0.540298 -2.403301 -0.102105
H -1.223842 2.794623 0.875146
H 0.929715 -1.121865 -1.786173
H -0.131184 -2.395893 1.674413
H 1.501533 1.264353 1.869314
H -1.582553 -0.511991 -1.818519
H -0.012622 1.165222 2.317685
H 2.025355 -1.109002 1.116831
H -1.912882 -0.522845 -0.096380
H 2.505289 -0.638534 -1.204832
H 0.814937 -3.304152 0.554156
H -1.315832 2.125353 -1.536211
H -2.962544 0.390480 -1.203173
H 1.130839 2.252656 -0.750986