19
H11 C6 N1 O1
C 0.115765 1.079639 0.487599
C 0.003594 0.849263 -1.062989
C 1.008441 -1.005226 1.893499
C 0.488895 -0.349988 0.631719
C 0.554523 -0.596229 -0.824984
O 0.022649 -1.876287 2.443666
N -0.640371 -1.136867 -0.337447
C -1.246844 1.237306 -1.815417
H -0.819116 1.322511 1.012276
H 1.280682 -1.144840 -1.410293
H 1.975903 -1.513038 1.725148
H 0.887346 1.470001 -1.490105
H -0.464999 -2.136247 -0.430088
H 0.881259 1.836021 0.734361
H -1.118203 0.966460 -2.876505
H -2.148563 0.832203 -1.376940
H -1.357098 2.339101 -1.776809
H 1.231850 -0.218789 2.657682
H -0.655712 -1.955002 1.815652