16
H7 C7 N1 O1
O -0.441232 -0.805928 1.621662
C -0.481534 1.168235 0.108603
C 0.635026 0.239826 -0.382730
C 0.700748 -0.028423 -1.830669
C 1.855958 0.277667 0.272849
C -1.749691 -0.950968 -0.327637
N 0.781796 -0.222164 -2.933742
C 2.947441 0.408211 0.869678
C -0.642070 -0.260021 0.331286
H -2.728451 -0.857387 0.228280
H -1.962333 -0.543762 -1.360099
H -1.014372 1.693037 -0.649045
H -0.245539 1.773536 1.001280
H 3.824122 0.502324 1.307525
H -1.570791 -2.012079 -0.450261
H 0.090948 -0.382109 2.193038