25
H16 C9
C 1.493073 1.203618 0.812315
C -0.675123 0.371917 -0.067884
C 0.833719 0.098859 -0.047378
C -1.516904 0.083910 1.240776
C -1.458673 -1.279695 -1.978824
C -1.459225 -0.358993 -1.148144
C 0.522628 0.770010 1.910359
C 2.931204 1.133236 1.119668
C -1.625293 -2.324250 -2.999667
H -1.181535 -0.805969 1.703726
H -2.370142 0.280710 -1.215526
H 0.899609 0.034339 2.557556
H 1.044703 -0.864174 0.261428
H -2.459683 -2.072866 -3.698707
H -0.718244 -2.341614 -3.614787
H -2.466604 -0.374927 0.830140
H -1.877234 -3.245511 -2.585089
H 1.368009 0.146225 -1.027694
H 3.618024 1.527967 0.268655
H 3.271724 0.120159 1.404449
H -0.842893 1.400573 -0.390533
H 0.062279 1.534833 2.462904
H 1.260291 2.200137 0.521006
H 3.258269 1.768575 2.061373
H -1.911944 0.992951 1.619878