10
H2 C4 N4
N -1.431028 2.768297 -1.696048
C -1.033649 1.869491 -1.123813
C -0.525019 0.736696 -0.529248
N -1.300560 -0.426734 -0.448605
C 1.184502 -0.239829 0.628392
N -0.828056 -1.552069 0.163009
C 0.434921 -1.452570 0.696375
N 0.664504 0.869582 0.098783
H 2.111797 -0.199623 1.076435
H 0.722592 -2.373252 1.134727