22
H13 C7 N1 O1
C -0.181624 0.889214 -0.912612
C -0.967903 0.380637 2.433032
C -1.975675 -1.373395 0.444601
C -0.578371 -1.634425 0.686791
N -1.191058 0.715818 0.117405
C 2.131328 0.142850 -1.390280
C 2.148972 1.391009 -2.006257
C -1.056900 -0.248114 1.021228
O 1.102421 0.568871 -0.362206
H -0.334316 0.194243 -1.742697
H 1.776457 1.551738 -2.968730
H 0.150379 -1.754588 -0.117308
H -2.731290 -1.774463 1.148325
H 2.715672 2.185330 -1.648176
H -0.237641 1.875619 -1.264982
H -1.158090 -0.447566 3.168693
H -0.338488 -2.271143 1.543643
H 1.706548 -0.717701 -1.919375
H 3.079949 -0.131083 -0.894564
H -1.737796 1.117331 2.656839
H -0.010931 0.749379 2.588844
H -2.311630 -1.409552 -0.582236