16
H7 C6 N1 O2
C -0.006677 -0.758178 0.028591
C 2.267385 -0.534039 -0.042884
O -1.090658 -1.491259 -0.045432
C -0.504292 1.596942 0.845782
C 2.093204 0.697166 0.594645
C -0.022248 0.512938 0.360388
O 1.193890 -1.267408 -0.424739
C -2.061835 -1.150098 -1.005836
N 0.936192 1.312279 0.835237
H -1.144331 1.582704 1.814007
H -2.562497 -0.216511 -0.703221
H -0.901530 2.421655 0.190903
H -2.726800 -1.883562 -0.998351
H 2.993863 1.186077 0.892321
H -1.625643 -0.978673 -1.974307
H 3.162011 -1.030026 -0.367083