17
H8 C5 O4
O -1.964162 1.827772 0.353551
C -0.198396 0.088910 -0.311056
C 2.402354 -0.172023 0.640834
O 3.334668 0.324117 1.127752
C -0.751563 -0.541687 -1.536844
O -1.921824 0.325818 -1.608942
C -1.559581 0.586948 -0.005427
C 1.204679 -0.661104 1.453183
O 0.280579 -0.933185 0.476228
H -2.626662 1.876532 -0.558055
H 0.322924 1.017040 -0.598632
H -0.112023 -0.460308 -2.489623
H -1.074409 -1.553113 -1.426406
H 0.903801 0.139613 2.107853
H -2.005465 -0.161164 0.805964
H 2.316029 -0.138156 -0.516461
H 1.449055 -1.566039 2.086061