19
H10 C5 N2 O2
C 0.464743 1.167240 0.060257
C 1.716829 -0.250536 -1.026699
N -1.310232 -1.353587 -0.276622
C 0.497426 -0.174239 0.906627
N 1.094487 0.886931 -1.179028
C -0.850513 -0.972500 1.050932
O 1.423043 -0.910869 0.245006
O 2.413544 -0.884059 -1.922135
C -0.996439 1.758686 -0.165146
H 0.848573 0.060596 1.915027
H -1.408045 2.076801 0.811952
H 2.569279 -1.798090 -1.639875
H -0.888027 2.671077 -0.696558
H -0.647550 -1.347171 -1.086458
H -1.562542 1.129822 -0.667851
H -1.535951 -0.333023 1.634755
H 1.043529 1.950958 0.615316
H -2.179291 -1.822778 -0.225388
H -0.692833 -1.855255 1.645892