15
H7 C5 N1 O2
N -0.682881 -1.128453 1.007213
C 0.966004 0.902545 -1.253789
O -2.873848 -0.687520 0.687972
C 0.650330 -1.052024 0.406005
C 0.936862 0.412973 0.169375
C -1.753430 -0.466698 0.424705
C -0.296540 1.055551 -0.441475
O -1.492669 0.316818 -0.666336
H 0.705073 -1.583955 -0.493088
H 1.475240 1.781455 -1.656770
H 0.848658 0.162825 -2.062285
H -0.798828 -1.258504 2.043864
H 1.393207 -1.491763 1.055994
H -0.535693 2.078332 -0.151749
H 1.458540 0.958421 0.930347