16
H8 C5 N2 O1
C -1.235034 0.495729 1.516300
N -0.364138 -1.590867 0.682629
C -0.776996 -0.917237 -0.473779
C 0.104127 0.100359 -0.295822
C 2.009948 0.323152 -1.610027
N 0.193865 0.445226 1.058750
C -1.606213 -0.818791 0.764441
O 0.681212 0.848640 -1.248946
H -1.085471 -1.461121 -1.342222
H -1.230811 0.298248 2.609167
H -2.614716 -1.225083 0.958484
H 2.000729 -0.672266 -1.823817
H 2.281612 0.898706 -2.541774
H 2.688342 0.556775 -0.791661
H 0.694283 1.339820 1.203526
H -1.740713 1.378670 1.334775