16
H7 C5 N1 O3
C -0.065262 0.340961 1.955435
C 0.290560 1.223973 -0.106077
C 0.007098 -0.775277 1.040347
O 0.262428 -2.004133 1.223137
C -0.272040 -0.165898 -0.369036
O -0.107007 -0.389828 -2.794152
O 0.062865 1.559538 1.302905
C 0.208483 -0.957595 -1.503265
N -0.113690 0.184931 3.214144
H 1.332965 -1.001386 -1.539740
H -0.147237 -1.969511 -1.483904
H -0.209338 1.996583 -0.728395
H -1.336946 -0.051496 -0.446308
H 1.359595 1.272301 -0.374948
H -1.002522 -0.411316 -2.970569
H -0.269947 1.148160 3.580428