19
H10 C9
C 1.245517 -0.610619 -1.524969
C 1.106426 0.178933 -0.456888
C 2.105262 0.968612 0.300918
C -0.332565 0.142710 -0.075615
C -0.904945 -0.714870 -0.958451
C -0.933093 0.957970 1.057569
C 0.002233 -1.250774 -1.963420
C -1.887747 0.223542 1.857823
C -2.701804 -0.376556 2.515842
H -1.340564 1.893089 0.683449
H 1.880901 1.970514 0.312942
H -0.118304 1.238134 1.760643
H 2.243130 0.624334 1.362433
H -0.325292 -0.969901 -2.966594
H -3.367522 -0.869507 3.131779
H 2.234159 -0.847937 -2.058972
H -0.009837 -2.374536 -1.956155
H -1.947442 -1.047794 -0.861950
H 3.051503 0.864679 -0.160405