15
H7 C5 N1 O2
C -0.360072 0.016661 -0.055401
C -1.332961 0.874097 -0.072362
C -0.808829 -1.449212 -0.473483
C 1.490405 1.329759 0.367265
O 2.726724 1.541727 0.611881
C -2.300666 1.656355 -0.031141
N 0.999510 0.188914 0.188199
O 0.141765 -2.362539 -0.149483
H -1.029122 -1.466209 -1.461015
H -0.148453 -3.289816 -0.438682
H -1.710488 -1.647163 0.069421
H 1.443241 -0.723763 -0.076246
H 3.055293 0.763258 1.054751
H -3.063185 2.317392 0.074353
H 0.896856 2.250530 0.391911