16
H9 C5 N1 O1
C 0.950284 -0.356818 -0.075000
C -0.285061 0.577072 0.420806
C 0.051601 -0.776611 1.002806
C -1.413985 0.861862 -0.404045
N 0.114417 1.270734 1.634505
C 0.992033 -1.021739 -1.487737
O 0.329931 -0.180337 2.315086
H 1.907789 0.027942 0.252723
H -1.932292 0.017851 -0.832220
H 1.568889 -1.907519 -1.403900
H -1.134096 1.485836 -1.320704
H 0.144879 1.844142 2.539125
H -0.451398 -1.708465 1.097365
H 1.371663 -0.353721 -2.142646
H -2.180196 1.510238 0.167274
H -0.034456 -1.290484 -1.763449