16
H7 C5 N3 O1
C -0.626073 0.015698 1.160932
O 0.934653 0.263157 -1.049078
C 0.697233 1.422780 -0.330876
N -0.720344 -0.891466 0.217277
C -1.447216 -0.128694 2.293930
C 0.221202 1.247295 1.108305
C 0.156149 -1.858899 -1.758965
N -2.064701 -0.312483 3.229954
N 0.104428 -0.805287 -0.772343
H 1.616357 1.987150 -0.324468
H -0.023080 2.025593 -0.865964
H -0.358823 -1.495028 -2.686343
H 1.184667 -2.001814 -2.083155
H 1.028119 1.100124 1.803576
H -0.357494 2.138173 1.435424
H -0.345092 -2.706278 -1.378199