21
H12 C7 N2
C -0.020758 -1.340920 1.687027
C 0.199149 1.491509 0.777192
C 1.334990 -0.044290 -0.708978
C -0.916192 0.611333 -1.524751
N -0.207166 -0.994676 0.245801
C -2.309837 0.811175 -1.063392
C 0.090281 0.367566 -0.297199
N -3.369199 1.004498 -0.581731
C 0.816596 -2.026692 0.597651
H 1.538621 -0.245780 -1.773663
H 0.831802 1.221021 1.648118
H 0.498521 -0.616110 2.327110
H -0.760455 1.796451 1.145257
H -0.800346 -1.826870 2.117113
H 0.546448 -2.967390 0.260327
H 2.242724 0.196426 -0.168025
H -1.141517 -0.564136 -1.812085
H 0.679051 2.374447 0.378173
H -0.455072 0.731879 -2.469343
H 1.916809 -1.909168 0.760027
H -0.714462 1.929719 -1.544626