19
H10 C7 O2
O -0.866041 -2.316829 0.699757
C -1.841403 -0.024373 0.529189
C -0.749244 -1.214965 0.336987
C -0.798303 0.991472 1.065441
C 1.754854 -1.390499 -0.193731
O 0.137508 -0.236289 -1.657958
C 0.502107 -0.590491 -0.310214
C 0.229686 1.155759 -1.345280
C 0.410346 0.959718 0.135574
H -0.774823 1.755696 -1.584011
H 1.579782 -2.434693 -0.326154
H -0.502702 0.773664 2.085374
H -1.244578 2.050026 1.077030
H 2.479178 -1.088077 -0.919942
H -2.299081 0.234387 -0.407133
H 2.220118 -1.240948 0.844386
H 1.333033 1.285519 0.608497
H -2.612390 -0.305819 1.252561
H 1.041926 1.636743 -1.890371