21
H12 C8 O1
C -0.243970 0.352052 2.451970
C 0.156936 -1.313035 -0.640256
C 1.411612 -1.933362 -1.039249
C 0.114966 0.217497 -1.088963
C 0.343613 1.086641 0.065799
C -1.042537 -0.728387 -1.248712
C -0.759047 0.958693 1.185587
O -0.694648 -0.632571 2.868324
C -0.505969 2.215860 0.552024
H -1.926475 -0.446627 -0.811077
H -0.319200 -1.913716 0.258841
H 0.612879 0.935174 2.771960
H -1.222901 2.567450 -0.168853
H 0.430333 0.847263 -2.045857
H -1.881179 0.676935 1.097851
H -0.039251 3.002452 1.078937
H 2.073443 -1.835202 -0.174687
H 1.420659 1.272257 0.266433
H 1.938120 -1.409314 -1.798474
H 1.354626 -2.969476 -1.268672
H -1.222025 -0.950586 -2.312909