17
H8 C8 O1
C -1.356351 -0.134534 -1.013825
C 0.708121 0.708841 -0.069701
C 0.586705 -0.740292 0.001912
C 1.708806 -1.645332 0.311900
C -0.840016 0.949930 -0.088697
C -0.519029 -1.118998 -1.003276
O -0.811387 3.186604 0.715566
C -0.118348 0.160004 0.997646
C -1.429734 2.271097 0.125932
H 2.338748 -1.201266 1.120414
H 1.379521 -2.569388 0.739086
H -0.621486 -2.078432 -1.469543
H -2.373906 2.407775 -0.223718
H -0.289321 0.139332 2.068303
H -2.304991 -0.026847 -1.576908
H 2.436189 -1.753850 -0.484191
H 1.506485 1.445337 -0.150869