18
H9 C5 N1 O3
C -0.460012 -0.891203 -0.818889
N -0.947504 3.044459 1.306869
H 1.489482 0.984399 -1.619433
H -0.063579 -3.055975 -0.656262
C -0.239198 2.054829 0.910413
C 1.236387 0.989435 -0.558661
C -0.848241 -2.328890 -0.437082
O 0.225386 1.943584 -0.340418
C 0.771763 -0.348105 -0.068591
O 0.147538 0.956763 1.717430
O 0.513364 -0.283241 1.356495
H -1.714413 -2.723866 -1.023823
H -1.288750 -0.210857 -0.566724
H -1.146742 2.922785 2.293502
H 2.189099 1.284466 -0.015255
H -1.205120 -2.425106 0.615493
H -0.293407 -0.816346 -1.873598
H 1.633942 -1.097130 -0.221442