19
H10 C6 O3
C 2.377427 0.586219 -0.197704
C 0.391434 -2.243231 0.592230
O -1.594240 -0.843053 0.438164
C 0.028018 0.192789 -0.558025
C -1.475271 0.433062 -0.310013
C -0.351171 -1.216344 -0.135468
O 0.972587 0.856815 0.192009
C -1.878804 1.611021 0.475524
O 0.200476 -2.287303 -0.950511
H -1.163024 1.806834 1.291073
H 2.618522 -0.489865 -0.187362
H 2.969429 1.108531 0.512443
H -0.255535 -3.049576 1.133057
H 1.343253 -2.081584 1.006673
H -1.894095 2.536247 -0.169060
H -2.901017 1.544856 0.910623
H 0.237758 0.315503 -1.589720
H 2.483199 0.929100 -1.230067
H -2.108963 0.289970 -1.223892