25
H16 C8 O1
C -0.071573 0.003966 -0.350986
C -1.408208 0.146980 0.319574
C -2.263353 -1.133587 0.109130
C 2.212260 -0.606462 0.458279
O -3.503714 -0.992401 0.817321
C 3.581846 0.053814 0.725611
C -2.145101 1.442480 -0.235622
C 0.039867 -0.544464 -1.658839
C 1.168223 0.591329 0.127937
H 1.542818 1.362213 -0.540787
H -1.738912 2.298732 0.278023
H -1.695058 -1.979719 0.576334
H 2.298140 -1.268568 -0.355516
H 1.045115 1.068421 1.140785
H 4.336072 -0.687618 0.972077
H 1.845690 -1.150746 1.277061
H -1.306447 0.332864 1.393235
H -2.403778 -1.415649 -0.923524
H 0.044813 -1.611438 -1.718722
H -3.148648 1.497935 -0.316641
H -1.759568 1.624900 -1.335179
H 3.498314 0.702639 1.574762
H 3.922409 0.681185 -0.140851
H -4.083333 -0.492646 0.249491
H -0.007901 0.075822 -2.442970