18
H9 C6 N1 O2
O -0.585077 1.293372 -1.997743
C -0.137905 0.774253 1.824896
C 0.540321 -0.104515 0.736679
C -0.027347 0.570710 -1.018795
C -1.416096 0.551851 -2.862878
O -1.935100 1.194075 -3.772593
C 1.599789 -0.968930 1.135953
C -0.537473 -0.672407 -0.311591
N 1.046771 0.903978 -0.327873
H -1.044100 1.380178 1.409444
H -0.203403 -1.584748 -0.823427
H -1.497528 -0.543863 -2.635013
H 2.312195 -0.408070 1.787428
H 0.558173 1.484913 2.251043
H -0.538375 0.087965 2.588099
H -1.562135 -0.770653 -0.009125
H 2.184408 -1.398269 0.265891
H 1.242893 -1.789824 1.759614