21
H12 C6 O3
C 0.057375 -0.019684 -0.209860
C 0.192113 -1.302989 -0.862893
C -0.554306 -2.519958 -0.257722
C 1.226765 2.002928 0.778265
O 0.699093 2.834516 -0.261099
O -0.227433 0.068524 -1.635282
C 1.326908 0.574050 0.339432
C -1.312343 0.301592 0.514535
O -2.446512 -0.282341 -0.174763
H -1.152999 -2.310843 0.625623
H 0.554057 2.050232 1.631640
H -2.259239 -0.106587 -1.143946
H 2.148005 2.394368 1.067704
H 1.133196 -1.550933 -1.313567
H 0.293026 2.377317 -1.003217
H 0.305773 -3.200839 0.120762
H -1.373041 1.438240 0.588036
H -1.280217 -0.119117 1.501798
H -1.127644 -3.075578 -1.005638
H 2.114218 0.468646 -0.445160
H 1.683185 -0.021583 1.145382