18
H9 C7 N1 O1
C -1.194952 -0.661159 -0.269051
C -1.974251 0.578218 -0.639580
O 1.920331 1.346302 0.306494
C 0.926587 0.498803 0.740395
C -1.287111 -0.040953 -1.761662
N 0.221156 0.366682 -1.651668
C 1.711104 -1.234918 2.654464
C 1.344915 -0.497417 1.863862
C 0.320732 -0.296989 -0.354589
H 2.685633 0.815210 0.056929
H 0.273680 1.341590 -1.570909
H -1.582501 -1.591184 0.035017
H -1.719797 1.520930 -0.169439
H 0.143794 1.122128 1.204282
H 1.999526 -1.931461 3.432782
H 0.938246 -1.217828 -0.585265
H -3.085027 0.360511 -0.615506
H -1.642092 -0.478427 -2.676556