19
H11 C5 N1 O2
C -0.945497 -2.704632 0.726467
N -0.884633 2.530817 -0.183301
C 0.620613 0.319815 -0.742788
C 1.144120 1.535161 -0.011058
O -0.032281 -0.566436 0.234706
C -0.474014 -1.797042 -0.432431
O -1.212010 -3.799991 0.043686
C 0.055454 2.270868 0.817580
H 1.573959 2.215544 -0.793461
H -0.556797 2.758704 -1.064176
H 1.475774 -0.252640 -1.215386
H -0.094536 -2.884201 1.497336
H -0.419297 1.638199 1.565601
H 0.519641 3.158464 1.345009
H -1.258932 -1.574477 -1.152641
H -0.037854 0.475324 -1.585253
H -1.800907 -2.246506 1.301990
H 0.387211 -2.308020 -0.950872
H 1.939970 1.231002 0.599008