15
H6 C6 O3
O 1.397330 0.952359 -0.637487
C 0.511651 0.362983 -1.532492
C 0.226980 0.031558 1.358162
O -1.385150 -1.810151 0.956596
C 0.158242 1.149708 0.192116
O 1.459531 -0.511890 1.668283
C -0.564900 -1.055450 0.518706
C -0.406069 -0.819939 -0.955893
C -0.841794 0.655270 -0.934795
H 0.753369 0.343862 -2.604127
H -1.752339 1.044832 -1.253517
H -0.665633 -1.470108 -1.617924
H 1.307179 -1.431144 2.059975
H -0.287851 0.379690 2.236910
H 0.089465 2.178429 0.545503