16
H7 C7 N1 O1
C 0.381867 -0.456660 -1.434881
C 0.692296 1.059041 -0.265769
C -1.442176 1.534950 1.171562
C -0.873177 1.047569 -0.139838
C 1.051809 -1.067511 0.979728
N -1.899533 1.975504 2.118625
O -0.338321 -1.067313 1.083447
C 1.136747 -0.265411 -0.247531
C -0.801497 -0.549945 -0.239407
H 1.493603 -2.143492 0.756754
H -1.728602 -1.053617 -0.480247
H -1.328270 1.506278 -1.001500
H 1.288188 1.661610 -0.002535
H 1.539824 -0.602281 1.864354
H 0.642041 -1.540164 -1.819800
H 0.185210 -0.038544 -2.342956