13
H4 C5 N2 O2
O -2.408768 -2.257902 1.582513
C 1.850500 1.351157 -1.566845
N 0.573727 -0.978252 0.594759
C 0.369516 0.170991 -0.082726
C 1.229743 1.410614 -0.244455
C -1.876809 -1.210575 1.179536
N 2.228788 1.456847 -2.583626
C -0.887510 -1.283080 0.109234
O -0.793826 0.148645 -0.614679
H 0.688917 2.217058 0.025282
H -2.050562 -0.282957 1.691969
H -1.003802 -2.039978 -0.687095
H 2.080096 1.297422 0.596132