18
H9 C6 N1 O2
C -0.260141 -0.622863 0.400612
C 0.281122 -0.522595 -0.918482
N 1.515242 0.184564 0.868386
O -2.077241 -2.034881 -0.200148
C 0.460450 0.085070 1.450282
C 0.991719 1.997453 -0.846369
O 0.234229 0.526719 2.595096
C -1.540208 -1.276198 0.836622
C 1.447906 0.581700 -0.529843
H 2.354248 0.334005 -0.897489
H -2.873096 -2.411681 0.160134
H -0.493245 -0.104151 -1.649871
H 0.723242 -1.430020 -1.429562
H 1.214231 2.234586 -1.878031
H -0.035536 2.171859 -0.580180
H 1.606234 2.699331 -0.255617
H -1.277499 -1.892027 1.748376
H -2.271647 -0.520856 1.126071