19
H10 C6 O3
C -0.356545 1.237394 1.326093
C 1.021521 0.894420 2.015403
C -0.599098 -0.975625 -1.494471
C -0.654711 -2.380126 -3.183917
O 1.091411 0.266524 -0.701267
C -0.022313 -0.074653 -0.504557
O -0.832208 0.239826 0.439305
C 1.059833 2.079359 2.839605
O 0.006615 -1.429423 -2.426092
H -1.666048 -1.325416 -1.253892
H -0.847040 -3.338454 -2.608470
H -0.005918 -2.560168 -4.024404
H -1.564604 -2.027386 -3.607711
H 0.262589 2.447393 3.429310
H 0.954819 0.105028 2.715575
H 1.860067 2.593478 2.813436
H 1.765619 0.744714 1.366852
H -1.145537 1.312333 2.104985
H -0.328416 2.190790 0.754191