18
H9 C7 N1 O1
C 1.106558 -0.631792 -0.551327
C -1.361647 -0.913204 -1.694592
C 0.551213 -0.738830 0.953881
C 0.979795 0.541581 1.695022
C -0.343653 1.111695 1.329690
O -1.016075 1.700727 -2.301864
C -0.365033 -0.210610 -0.800805
C -1.030289 0.624828 -1.880571
N -0.820048 -0.095464 0.569236
H 1.780486 0.108663 -0.951693
H 1.167971 0.344146 2.803350
H -1.926175 -1.651024 -1.090530
H 1.890738 1.077340 1.361745
H -1.044858 1.340448 2.181549
H -0.436162 1.995324 0.663934
H -1.136510 -1.395209 -2.667496
H 1.476191 -1.564074 -1.011506
H 0.527463 -1.644510 1.391959