18
H9 C6 N1 O2
C 0.126936 0.028269 1.841517
O 0.989877 -2.057750 -1.982217
C 1.572301 0.598837 -0.744435
C -0.130338 -1.365772 -1.390179
C -0.131781 0.679636 0.547666
C -1.459156 1.378839 0.347793
C 0.359725 -0.193744 -0.727937
N 0.992574 1.511812 0.093080
O 2.658547 0.537277 -1.248472
H -2.225945 0.673172 0.409267
H -0.700904 -0.739398 2.022356
H 0.005913 0.772265 2.660377
H -0.817160 -1.025641 -2.189533
H 1.034493 -0.458621 1.985293
H -1.585238 2.124450 1.165129
H -0.700894 -2.070711 -0.752372
H -1.609720 1.815682 -0.686597
H 1.620757 -2.208624 -1.350719