17
H8 C7 O2
O -0.071670 2.010261 0.455531
C -1.061192 -0.781544 -0.207257
C 0.218212 -1.018710 -0.996478
C -0.353637 -0.437294 1.158305
C 0.848526 -1.112889 0.391439
O -0.707483 1.514091 2.489146
C 0.545014 1.407112 -0.727282
C -0.390496 1.080589 1.420177
C -0.399718 0.273987 -1.174776
H 0.844595 -2.234643 0.669754
H 1.534468 1.060524 -0.508149
H 0.370492 -1.699908 -1.851624
H -0.701062 -0.922283 2.049479
H -1.117079 0.577072 -1.888877
H 0.642540 2.093686 -1.609669
H 1.836878 -0.689784 0.604888
H -2.038423 -1.120287 -0.274613