16
H8 C5 N2 O1
O 0.682617 -1.731484 0.401855
C 0.304516 -1.411203 -1.937461
C -0.131828 1.246165 -1.213673
C 0.368500 -0.991189 -0.516861
N 0.103631 0.385320 -0.219143
C 0.313248 0.987514 1.079569
C -0.762503 0.450116 2.057911
N -0.310664 2.104151 -2.026504
H -0.668678 -1.207376 -2.407874
H -0.674267 0.927133 3.059147
H -1.781138 0.609883 1.687151
H -0.591675 -0.673932 2.152092
H 1.107431 -0.927331 -2.554045
H 0.264544 2.018181 0.925561
H 0.493489 -2.483959 -1.990105
H 1.282761 0.698032 1.502388