19
H10 C7 O2
C -1.888750 -0.042666 1.694701
C -0.001189 0.233029 0.512934
C 0.884054 -0.766417 -1.300568
C -0.970627 1.067992 1.449036
O -2.257930 1.073957 0.963057
C -1.074463 -0.972284 0.653112
C 0.336200 0.964063 -0.714864
C 1.381155 0.589725 -1.640481
O 1.769579 -1.836655 -1.039119
H -0.657113 1.855191 2.121083
H 0.939731 -0.043971 1.041064
H 0.057107 -1.192078 -1.828792
H 2.434351 0.876885 -1.397597
H -0.676587 -1.825139 1.239592
H 1.119576 0.851455 -2.644538
H 2.593479 -1.321212 -0.745172
H -1.648589 -1.256319 -0.164700
H 0.078163 2.069255 -0.770281
H -2.418149 -0.324805 2.571562