13
H5 C3 N5
C 0.856600 -1.132330 -0.483439
N -0.615269 1.003107 -2.806565
C -0.487451 -0.361639 -0.507327
C -0.566384 0.368550 -1.765714
N 0.196903 0.827276 1.702428
N -0.723376 0.485113 0.629313
N -1.397733 1.575721 0.906612
N -0.587862 1.736500 2.094295
H 0.986959 -1.766002 -1.316754
H 1.733998 -0.411446 -0.475278
H 1.000546 0.449581 2.085168
H -1.292573 -1.083856 -0.507916
H 0.895628 -1.690550 0.445150