19
H10 C8 O1
C 0.336503 -0.346060 -1.023265
C 0.670480 -1.297552 0.382593
C 0.794414 1.073365 0.968005
C 0.302460 1.950130 -0.031400
O 2.742858 0.293399 -0.457341
C 1.336240 0.052014 -0.094072
C -0.771097 -0.337187 -0.153719
C -2.023226 -1.142865 -0.051489
C -0.829943 1.188602 0.201396
H 1.017669 -2.220518 -0.136188
H 0.450490 3.000206 -0.255952
H 0.727263 -1.483623 1.413105
H -1.847440 1.623357 0.385427
H 0.739343 0.976046 1.925315
H -2.748189 -0.605231 -0.875543
H 2.889436 1.283025 -0.474633
H 0.461673 -0.732575 -2.086228
H -2.448302 -1.149730 0.825697
H -1.800643 -2.124762 -0.461697