12
H3 C4 N5
C -0.129784 0.260546 0.626669
N 2.448741 -0.344951 0.032866
N 2.130678 0.101963 1.319921
N 1.608909 -0.489708 -0.883565
N 0.285130 -0.177949 -0.664185
C -1.913487 0.049648 -0.657714
C 0.930658 0.371175 1.627848
C -0.773160 -0.274126 -1.401764
N -1.452837 0.347447 0.658132
H 0.621558 0.732683 2.638748
H -0.776593 -0.639027 -2.457103
H -2.979777 0.062290 -0.839855