20
H11 C6 N1 O2
C 0.578334 -1.146708 0.714185
C 0.234395 0.481995 0.609415
C 1.643889 0.710971 -0.024176
C -0.259159 -2.126566 0.155188
O -2.098819 1.870020 1.072230
C 1.967522 -0.810818 -0.072604
C -1.714601 1.544456 -0.074643
N -2.414565 1.801186 -1.265464
O -0.775998 0.645099 -0.338077
H -1.840555 1.771615 -2.070723
H -0.478616 -2.053778 -0.890142
H 0.854097 -1.260630 1.867010
H 1.559747 1.274117 -1.005244
H 0.165708 -3.156048 0.347759
H -3.088486 2.625988 -1.187495
H 1.861147 -1.176444 -1.126903
H -1.253287 -2.146003 0.724060
H -0.008777 0.907983 1.513763
H 2.849856 -1.112039 0.419861
H 2.218182 1.355579 0.632017