18
H10 C5 N2 O1
C 0.588939 -0.981943 0.886771
C 0.707452 0.171129 -0.122419
N -0.403197 0.101794 -0.945207
C -0.363400 -1.678583 2.760035
O 1.553404 1.002380 -0.087194
N -0.588960 -0.764317 1.716801
C -0.061043 2.264073 -2.381184
C -0.563396 0.868416 -2.136935
H -0.861570 2.845128 -2.739805
H -1.183040 -2.473212 2.718663
H -0.972804 0.344200 -2.947105
H 0.797575 2.196794 -3.099888
H 0.371721 2.686548 -1.454327
H 1.543587 -0.881262 1.422779
H 0.570699 -2.291433 2.939803
H -0.351894 -1.097764 3.782393
H 0.488395 -1.962312 0.383922
H -1.272487 -0.349637 -0.697095