19
H10 C7 N2
C -1.076095 -1.272887 -0.082203
C 0.173208 0.944139 -0.934905
C -0.828255 -2.057674 -1.228463
C 0.044724 -0.176829 0.182771
C -0.108626 0.780560 1.578230
N 0.409856 -2.273763 -1.217471
C 0.726935 1.915466 0.044895
N 1.401350 -0.235769 0.594576
C 1.283723 1.135032 1.209449
H 0.944046 0.746942 -1.679614
H 2.071953 1.383515 1.770775
H -1.098769 -1.849161 0.882549
H -0.954789 1.534394 1.763795
H -1.557081 -2.397069 -1.934747
H 0.835826 -1.593272 -1.810046
H -0.170932 -0.003215 2.460092
H 0.700194 2.994195 -0.034438
H -2.050113 -0.855853 -0.101609
H -0.747170 1.281296 -1.463635