17
H8 C5 N2 O2
O 0.550160 0.168369 2.897734
N -0.748803 -1.280612 0.860250
C 0.082947 -0.073480 0.654508
C 0.081072 0.400713 -0.698284
C 0.694393 0.572339 1.716360
O -2.004243 -2.631878 -0.418327
C -1.260356 -1.723825 -0.170171
N -0.802402 -0.620698 -1.423379
C 0.780951 1.476097 -1.290823
H -0.350856 -1.242892 -2.152423
H -1.089284 -1.377226 1.775285
H 0.719282 1.496941 -2.341561
H 1.935002 1.465230 -0.989238
H 1.121999 -0.635711 3.063051
H 1.281999 1.451445 1.507469
H -1.403829 0.081994 -2.028222
H 0.411962 2.473182 -0.962218