18
H9 C6 N1 O2
O -1.830969 1.902389 -1.769020
C -0.419576 1.933388 -1.252109
C -2.205324 1.048428 -0.612174
C -0.828386 1.004771 -0.169126
O -3.243481 0.601482 -0.339120
C -0.181123 0.334394 0.927925
N 0.162546 -1.078799 0.416215
C 1.520730 -1.282820 -0.172321
C 1.176230 -1.863102 1.062276
H 2.265621 -0.399655 -0.198553
H 0.318187 1.617948 -2.041137
H 1.587516 -1.909238 -1.084848
H -0.135449 3.007531 -0.946648
H -0.781272 0.275219 1.769402
H -0.663434 -1.562653 0.102789
H 0.899235 -2.988496 1.105674
H 0.793311 0.851891 1.204252
H 1.565665 -1.492686 1.996526