19
H10 C7 O2
C 0.395655 1.289415 -1.326125
O -0.598551 -1.104703 -0.842284
C 0.487959 -0.610140 -0.011388
C -0.029631 0.204554 1.045975
C -1.137683 1.125252 0.521100
C 1.377809 -1.761193 0.396265
C 1.235735 0.554245 -0.681334
O -2.418096 0.759839 0.968502
C -0.988581 0.953137 -1.011976
H 2.344414 0.647005 -0.650090
H -1.799048 1.038271 -1.694826
H 1.909755 -2.145140 -0.480121
H 0.849148 -2.519568 0.963470
H -1.157382 -1.467523 -0.125945
H 2.120838 -1.347823 1.076651
H 0.332319 0.224758 2.010226
H -2.472666 -0.212583 0.942535
H -0.947660 2.134276 0.808903
H 0.495689 2.237905 -1.909555