14
H6 C6 O2
C -0.145987 0.386791 1.216988
C 1.293138 0.371442 -0.246205
O -0.103439 -0.827094 -1.860788
C -0.446022 -1.165596 -0.569614
C 0.648448 -0.790749 0.477833
O 2.376598 0.809798 -0.366916
C -0.911587 0.127339 -1.016935
C -0.075204 1.090220 -0.204936
H -0.223520 2.222527 -0.306311
H -1.025165 -2.033316 -0.455313
H 0.409725 0.858384 2.036613
H -1.143955 0.140755 1.603613
H -1.881328 0.383305 -1.272826
H 1.228302 -1.573822 0.964805