21
H12 C9
C 1.769904 -0.184197 -1.337492
C -0.335644 1.014435 -0.919777
C 0.576877 0.985849 2.594019
C -0.069800 -1.293062 0.058902
C -0.573894 0.189761 0.347227
C 1.418725 -1.350334 -0.406839
C 0.135648 0.632443 1.580401
C -2.109423 0.209488 0.623254
C 0.960950 0.825084 -1.563552
H 1.237459 1.555418 -2.280037
H 1.971016 -1.271920 0.513792
H -2.709883 -0.239878 -0.194786
H 2.676570 -0.328941 -1.792387
H -1.180930 0.804979 -1.695267
H 0.956086 1.295423 3.534999
H -0.441190 2.067537 -0.681126
H -0.267957 -1.934586 0.906145
H 1.625752 -2.302087 -0.761620
H -2.472288 1.288012 0.750335
H -2.386523 -0.243205 1.496007
H -0.781480 -1.720198 -0.772176