18
H9 C5 N1 O3
O -0.876932 -0.551291 -1.853628
N 1.550238 0.543451 1.315535
C -0.755062 -0.349571 0.625170
C 0.445858 -1.206165 -1.628049
C -1.501193 -0.872410 -0.658296
O 1.195882 -0.505939 -0.791802
C 0.516145 0.190828 0.435740
O 0.976001 2.014616 1.542590
C 0.011405 1.743312 0.599782
H -2.540577 -0.473285 -0.697560
H -1.339386 -0.354852 1.495584
H 0.867991 -1.136499 -2.683420
H 1.186678 0.119882 2.297106
H 0.250126 -2.284423 -1.352242
H 0.127702 2.164837 -0.383662
H 2.481658 0.885008 1.097556
H -1.670576 -2.008582 -0.376095
H -0.925958 2.081060 1.015729