16
H8 C5 N2 O1
C 1.130593 0.934457 0.928225
C 0.065746 -0.170625 1.049095
N -1.130329 -1.068945 -3.757776
C -0.846225 -0.237900 -1.383579
C -1.011346 -0.687063 -2.751537
N -1.593176 -1.274004 -0.589942
C -0.160725 -0.933310 -0.224639
O 1.591174 1.296799 2.285782
H 2.034585 0.590534 0.359549
H 0.746574 1.770553 0.442334
H -0.878766 0.296391 1.416703
H 0.389036 -0.913393 1.788266
H 2.165745 1.933577 2.288392
H -0.804746 0.842617 -1.268270
H 0.552864 -1.678778 -0.495408
H -2.251022 -0.700934 -0.087195