14
H6 C6 O2
C 0.069574 1.171871 0.657210
C -0.845056 1.498835 -0.528557
C 0.648053 -1.605544 0.650524
O 1.464352 -0.372202 -2.094727
C 0.557394 -0.008193 -1.402313
O -0.238741 1.111899 -1.684363
C 0.216823 -0.319507 0.039663
C -1.136688 0.341787 0.385290
H 1.681927 -1.697029 0.688309
H -1.507348 2.323629 -0.631271
H -1.954302 -0.009824 0.924634
H 0.203632 -1.705647 1.658646
H 0.532761 1.685385 1.327222
H 0.307582 -2.415464 0.009727