12
H3 C5 N1 O3
O 0.205966 0.817509 -1.346572
C 1.001896 -0.851568 0.099880
C -0.269512 -0.277316 0.585483
C 1.273953 -0.009474 -1.131946
C -1.981527 1.344696 -0.430905
O 2.189890 0.002841 -1.830607
C -0.738071 0.607390 -0.322481
N -2.966521 1.908734 -0.492783
O -0.909263 -0.662129 1.720068
H 0.900521 -1.883591 -0.221687
H -0.476174 -0.216899 2.529786
H 1.768832 -0.780190 0.841765