21
H12 C8 O1
O 0.003990 -2.088647 0.481296
C 0.362180 0.338576 0.931840
C -1.099357 -0.075731 -0.905574
C -1.625708 -0.115538 0.595144
C 1.213354 0.983180 -1.528482
C -0.984451 1.235732 1.087329
C -0.513734 -0.952626 1.211667
C 0.426858 0.143940 -0.543887
C 1.204424 -1.461211 -0.094380
H 1.494158 -1.852095 -0.999167
H 1.274572 0.653160 -2.557789
H -1.531477 0.760900 -1.419064
H -2.639158 -0.328173 0.756872
H -1.195651 1.314801 2.154826
H -0.564560 -1.225490 2.272256
H 2.038972 -1.921050 0.657423
H 2.289185 0.919445 -1.187657
H -1.293915 -1.061550 -1.374832
H 1.283143 0.588681 1.408884
H -1.067441 2.084649 0.543697
H 0.924625 2.059059 -1.490435