21
H12 C8 O1
C -0.452081 -1.892907 -0.822909
C -0.763893 -0.518467 -1.280411
C 0.519806 0.588745 -1.408081
C -1.579028 0.202658 -0.149841
C 0.814272 1.037261 -0.020947
C -0.537109 0.909377 0.773825
O 1.624343 0.107663 -1.947990
C 0.301278 -0.071440 1.839259
C 1.536293 0.034290 0.963246
H 0.030933 1.423813 -2.041289
H 2.450276 0.421753 1.415607
H -0.088488 -1.026530 1.984639
H 0.348121 0.450723 2.793762
H 1.206926 2.067928 0.072067
H 1.821699 -0.841444 0.426514
H -0.906151 1.791857 1.202538
H 0.476266 -2.141802 -0.321495
H -1.185687 -2.565093 -0.943519
H -2.237761 -0.451521 0.390698
H -1.242690 -0.471448 -2.285710
H -2.137281 0.944585 -0.639963