17
H8 C6 N2 O1
C -0.146503 2.093038 -0.289422
C 0.776154 0.086505 0.913129
C -0.039464 -2.848797 -0.950247
C 0.255724 -2.279693 0.352282
N -0.098602 -2.035874 -1.899457
N -1.293590 1.955320 0.473832
C 0.863409 1.374524 0.555477
C 0.357167 -1.010615 0.053243
O 0.186242 -0.789286 -1.361318
H 0.983426 -0.220530 1.950270
H 0.225503 -2.741300 1.299972
H -0.165820 -3.965687 -1.153189
H -0.191042 1.711558 -1.240462
H -1.718336 1.020493 0.443352
H -1.955137 2.614557 0.387961
H 1.782224 1.903448 0.820207
H 0.178635 3.132369 -0.355613