19
H10 C7 O2
O 1.656038 -0.237158 -1.252145
C 0.401102 -0.454288 -1.793358
C -0.750264 -0.200781 0.479031
C 1.692008 0.425798 0.035887
C 0.316425 0.879128 0.584514
C -0.488751 -1.118495 -0.739577
C -1.863537 -0.544546 -0.537806
C -0.064658 0.685782 2.057009
O -1.303696 -0.054378 1.840714
H -0.195673 -2.169256 -0.460823
H 0.534067 -1.106215 -2.593744
H -0.018758 0.516620 -2.220182
H -0.049121 1.785412 0.060692
H -2.228048 0.169791 -1.215584
H 2.186046 -0.244699 0.754576
H 2.355698 1.333972 -0.092299
H -0.209978 1.598093 2.664301
H -2.582042 -1.298006 -0.209477
H 0.613142 0.033222 2.638278