25
H16 C9
C 2.328904 0.336828 -1.099291
C -0.519302 -1.114082 -1.129569
C 2.571038 -0.882476 -0.285795
C -2.270459 -0.824484 1.389253
C -0.792517 -0.555794 1.331133
C -0.638602 1.026709 0.731825
C -0.994533 2.007679 -0.340847
C 1.447916 0.028051 0.104486
C -0.002224 -0.260652 0.103872
H -1.597018 -0.918934 -1.263440
H 2.948882 1.207758 -1.064422
H -0.096816 -0.729936 -2.009566
H 1.762134 0.539623 0.991966
H -0.394317 2.930891 -0.202122
H -1.992255 2.202650 -0.410252
H -0.194538 -0.941066 2.097405
H 3.539646 -0.815965 0.306268
H -2.619122 -0.658801 2.429411
H -0.332332 1.539049 1.607651
H 1.882675 0.145969 -2.100343
H -2.584451 -1.851685 1.093497
H 2.293304 -1.828038 -0.542058
H -0.633119 1.709060 -1.462248
H -2.863749 -0.111802 0.745883
H -0.249138 -2.180539 -1.022701