16
H8 C6 O2
C -0.699401 -0.323187 -0.504280
O 2.328905 -1.578573 0.786526
C 0.208291 -1.369161 -0.367621
C 1.432711 -0.888549 0.298015
C 0.232128 0.822754 -0.968610
C 1.387471 0.596791 0.089187
O 1.046531 1.439282 1.280949
C -1.971150 -0.216342 0.219068
H -2.602938 -1.081905 0.059628
H -0.246325 1.784889 -0.825408
H -2.576112 0.694303 -0.167702
H -1.928194 -0.103721 1.227934
H 2.314886 1.057011 -0.275545
H 0.401434 0.909306 1.786147
H 0.643344 0.708487 -1.980075
H 0.028408 -2.451364 -0.658195