19
H10 C7 O2
C -1.611057 -0.654144 -0.507943
C 1.003907 -0.997500 0.626372
O 0.190010 0.078939 -2.185880
C -0.519219 0.365311 -1.021060
C -0.991687 -1.279094 0.817196
O 0.176633 -2.078966 0.343721
C 1.438760 1.579786 0.242500
C 0.479874 0.469068 0.185909
C -0.042318 -0.222438 1.448390
H -2.505019 -0.285266 -0.233066
H 0.929682 2.568202 0.534213
H 1.878320 1.772890 -0.734486
H -1.573227 -1.811257 1.472598
H 2.209259 1.506214 0.991082
H 2.053004 -1.138563 0.747138
H -1.744791 -1.521347 -1.217200
H 0.069538 0.212631 2.426194
H -1.028552 1.323194 -1.064926
H -0.413094 0.112350 -2.870760