12
H3 C4 N5
C 1.691176 0.835923 0.103939
N 1.169693 0.979237 1.354355
N -0.915937 -0.915312 -1.499751
N -2.037650 -1.232934 -0.764372
C -0.037621 -0.205125 -0.700765
C 0.022268 0.510547 1.559854
N 1.173977 0.273497 -0.954824
C -0.660966 -0.199457 0.507949
N -1.834648 -0.798882 0.379470
H 2.665524 1.281348 -0.079682
H -0.401716 0.608532 2.555573
H -0.834113 -1.137346 -2.461738