17
H8 C8 O1
C -0.111634 -1.323893 0.742502
C -0.189297 0.454108 -0.992305
C 0.619693 1.447515 -0.013818
C 1.071558 -1.409696 -0.320388
C -1.130073 -0.383983 -0.098323
O 2.016339 -2.130582 -0.199517
C -0.640947 -0.083677 1.301090
C 0.762013 -0.606541 -1.446710
C -0.452709 1.344270 0.856091
H -1.217533 2.038674 1.089440
H -0.945552 -0.211447 2.315262
H -2.159279 -0.607211 -0.228004
H 1.619776 1.010930 0.351996
H 1.063745 -0.784634 -2.399185
H -0.356420 -2.242021 1.203921
H 0.833335 2.413645 -0.447446
H -0.783045 1.074536 -1.714623