21
H12 C7 N2
C 2.129755 0.214679 0.124746
C -1.946078 1.287605 -0.062527
C 0.672352 0.324359 1.128465
C 1.119056 0.933410 -1.132637
C -0.132921 -0.523885 -0.050159
N 1.351143 1.385654 0.309195
C -0.492866 -1.912725 0.327238
C 1.260607 -0.533226 -0.882115
N -1.400729 0.041158 -0.587567
H -0.773637 -2.503445 -0.527380
H 1.138088 -0.374294 1.814892
H -2.932530 1.470908 -0.535412
H 1.234616 1.520210 -1.935831
H -1.603043 -0.051534 -1.494710
H 0.158222 0.871869 1.817264
H 3.176022 0.183408 0.341525
H -1.344323 -1.849765 1.050097
H 1.545455 -1.292944 -1.568012
H -1.349586 2.167913 -0.034224
H 0.324605 -2.468360 0.850978
H -2.134203 1.108994 1.046175