19
H10 C6 O3
C 0.271316 -1.137831 -0.225162
O 1.732180 -1.183915 0.045000
C -0.193805 1.225736 0.224219
C -1.493338 0.302310 0.667354
O -0.139222 0.433117 -2.195189
C 1.913909 -0.042611 -0.915577
C -0.749917 -1.007457 0.956837
O -0.025413 -0.987573 2.210391
C 0.391708 0.276119 -0.905942
H 2.169466 -0.415803 -1.897348
H -1.956852 0.713351 1.492544
H -0.219942 -0.184355 2.580677
H 0.510743 1.382340 1.030144
H -2.151798 0.234450 -0.150194
H -0.443137 2.149531 -0.230883
H -0.045108 -1.914997 -0.933090
H -0.636399 1.287597 -2.150496
H -1.480827 -1.832628 0.993014
H 2.546456 0.702610 -0.596279