15
H6 C6 O3
O 1.355565 -0.746024 0.447817
C -0.849156 0.322136 0.119662
C 1.144364 -0.923446 1.798409
C 0.067647 0.546644 -2.610013
C 0.424996 -0.079623 -0.375502
O -1.722660 0.781220 -0.637516
C -1.055544 0.079337 1.523216
O 0.938147 -0.011689 -1.592481
C -0.045064 -0.490262 2.283947
H 0.791088 0.620946 -3.429884
H 1.991532 -1.363518 2.248637
H -0.187972 1.618317 -2.314144
H -0.151045 -0.697982 3.391353
H -1.938964 0.368555 1.922511
H -0.762918 -0.024639 -2.776030