25
H16 C8 O1
C -1.215835 -0.344433 0.120795
C -0.159829 -2.372432 -2.160474
C -0.066921 -0.331144 -0.743276
C 0.063467 1.666008 0.713070
O -2.402402 -0.803610 -0.230632
C 0.561515 -1.641223 -1.075173
C 0.954469 0.732848 -0.164960
C -1.031838 0.633103 1.223079
C 0.769778 2.511733 1.738525
H 1.406667 1.310868 -0.987385
H -1.183071 -2.554109 -1.835046
H 0.077049 3.157888 2.265486
H -0.200546 -1.843149 -3.091302
H 1.830020 0.197410 0.490605
H -2.296412 -1.746134 0.196793
H 1.573618 3.135754 1.299099
H -1.963248 1.161269 1.503754
H -0.565870 0.148471 -1.667052
H 1.276006 1.846893 2.560969
H 1.629297 -1.452301 -1.458521
H -0.418272 2.318347 0.042557
H -0.695552 0.164672 2.246143
H 0.323715 -3.370595 -2.372411
H 0.994425 -0.311781 1.504759
H 0.739761 -2.214349 -0.119459