19
H10 C6 N2 O1
C -1.016806 0.375183 0.899811
C -1.998379 1.180658 1.657223
C -0.140259 -1.414686 -0.137608
C 2.018031 1.398257 -1.554183
N 0.139318 0.854477 0.485467
C 0.850177 -0.213254 -0.186630
C -1.222666 -0.954583 0.520160
N 0.115400 -2.528764 -0.864925
O 1.305454 0.106115 -1.536263
H 1.018255 -3.006207 -0.605564
H -0.614754 -3.226569 -0.691478
H 2.796926 1.471947 -0.832808
H -1.710185 2.268337 1.705945
H -2.096136 0.877918 2.689727
H -2.964042 1.165677 1.182661
H 1.323523 2.194315 -1.392657
H 1.811305 -0.481092 0.439271
H -2.101758 -1.543912 0.784662
H 2.486573 1.476186 -2.562827