18
H9 C7 N1 O1
C -0.273905 0.002318 -0.379563
C 0.480110 -1.753243 -1.533466
C -0.286382 0.443088 2.182459
C -0.980053 0.578179 0.903469
O -0.827472 0.155124 -1.688984
C 0.582127 -0.215186 -1.981708
C -0.099094 -1.513206 -0.332756
C 1.076314 0.546205 -0.791589
N -0.456363 1.773879 1.475876
H 1.933469 0.327487 -0.283118
H 0.769892 0.144541 2.281869
H 0.912850 -0.069483 -3.028729
H 0.631921 -2.600983 -2.109741
H 0.975551 1.650518 -1.046689
H -0.818654 0.226327 3.085892
H -1.230055 2.260614 1.943050
H -2.039257 0.314645 0.867117
H -0.351013 -2.270836 0.436628