17
H8 C5 N2 O2
C -0.942908 -1.620831 1.109707
N 0.778477 1.288190 -0.687771
C 0.069929 -1.172386 -0.911322
N 0.146150 -1.934120 0.351990
C -0.010687 0.281504 -0.205795
C 0.283931 -0.573910 1.197294
O -0.239775 3.057060 0.166913
C 0.266284 2.608312 -0.799478
O 0.204240 3.133530 -2.064425
H -0.740608 -1.436274 -1.544850
H -1.062228 0.632808 -0.131852
H -1.132700 -2.170138 2.047425
H 0.062076 -0.009304 2.108856
H 1.737632 1.188956 -0.883639
H 1.488594 -0.459894 1.255771
H 0.978277 -1.245012 -1.501323
H -1.886702 -1.568463 0.492488