18
H9 C5 N1 O3
C -0.485422 -0.646866 1.313561
C 0.371215 1.249401 0.103264
N -0.496193 0.538702 -0.843661
C -0.109340 -0.452138 -1.756471
O -1.212384 -0.985295 -2.358229
C 0.763483 0.276235 1.237002
O 1.150148 0.797647 2.401804
C -1.270161 -0.124329 0.132604
O 1.917468 -0.475220 0.782393
H -1.037252 -0.523184 2.238091
H -1.980188 -0.361075 -2.316771
H 2.561285 -0.207001 1.596574
H 0.496620 0.132898 -2.579499
H 1.321137 1.597692 -0.428810
H 0.585435 -1.194087 -1.272015
H -0.104764 2.168761 0.489043
H -0.165163 -1.644602 1.139645
H -2.305957 -0.147553 0.121477