19
H10 C7 O2
C 1.468745 -0.732374 -0.738879
C 0.033139 1.138259 0.154782
C 1.556826 -2.077999 -1.286602
C -1.151971 -0.771934 -0.371738
C 0.293790 -0.588276 0.167134
O 1.624118 -2.946735 -1.755809
C -1.320387 0.815262 0.147231
C -0.995706 0.462680 1.545766
O 0.791926 2.049552 0.807201
H 0.395557 1.433978 -1.086602
H 2.497038 -0.487099 -0.236396
H 1.298076 -0.098162 -1.679109
H -0.779782 1.300915 2.239808
H -1.138731 -0.878389 -1.453841
H -2.178640 1.373886 -0.243715
H -1.730867 -1.454542 0.025501
H 0.539205 -1.181210 1.095318
H -1.472769 -0.269093 2.044520
H 0.270422 2.911270 0.625413