15
H6 C5 O4
O 3.251648 0.828678 2.052591
C 0.330725 -0.055234 0.242860
C 0.982675 0.356739 1.461467
C -1.714678 0.130474 -0.699528
O -2.400466 -0.853522 -2.761829
C -1.593227 -0.206078 -2.174145
O -0.597232 0.919027 -0.183553
C 2.493853 0.064108 1.531528
O 0.036686 -0.779477 1.396463
H -2.620038 0.773026 -0.587720
H 2.740887 -0.924207 1.046715
H -1.891773 -0.797010 -0.184504
H -0.500579 -0.083226 -2.618910
H 0.831860 -0.595275 -0.582193
H 0.649650 1.221962 2.060745