22
H13 C7 N1 O1
C -0.384170 -0.642005 0.468363
C 0.587519 -0.714084 1.579337
C -2.153430 0.973734 -0.304386
C 1.412624 -0.300164 -1.865951
O -0.845177 -0.846334 1.764894
C -0.650993 0.626180 -0.330143
C 1.241884 0.465443 2.266127
C -0.068313 -0.285985 -1.573097
N -0.489115 -1.473605 -0.745805
H 1.151376 -1.664004 1.629401
H 0.679299 1.303838 2.174927
H 2.206648 0.657365 1.747836
H 1.953299 -0.877981 -0.990965
H -2.426644 1.545654 -1.150410
H -2.752389 0.065801 -0.243084
H 1.838009 0.629194 -1.984749
H -0.021118 1.439178 -0.246766
H 1.670725 -0.889433 -2.721596
H -2.344502 1.568246 0.606057
H -0.712215 -0.102157 -2.477271
H 1.544708 0.248931 3.358580
H -1.438033 -1.727794 -0.961312