18
H9 C6 N1 O2
C 0.488546 1.806469 -0.639003
O -2.494998 -3.228392 -0.396296
C -0.321769 -0.527551 -0.580145
C -1.917354 -2.718710 0.600980
N 0.964812 -1.407568 1.282284
C 0.002986 -1.082992 0.572805
C 1.783397 2.600034 -0.625050
O 0.683728 0.500655 -1.121775
C -1.418279 -1.395789 0.578573
H -2.088177 -0.547014 1.001813
H -0.892871 -0.806344 -1.499824
H 0.789212 -2.172523 1.951033
H -1.735035 -3.269710 1.559541
H 0.032969 1.813176 0.350762
H 1.650284 3.544801 -0.335659
H -0.275026 2.194000 -1.281262
H 2.235403 2.519722 -1.540588
H 2.512172 2.177739 0.121863