19
H11 C6 N1 O1
C -1.236962 -1.011788 -1.922268
C -1.686057 0.799348 -0.129934
C 2.376675 0.612893 0.936613
C 1.121717 -0.049391 1.111036
N -0.637201 -1.340539 0.434344
O 0.488465 -0.128185 2.346643
C -0.938034 -0.349376 -0.572674
C 0.497620 -0.673845 -0.007477
H -2.773593 0.564579 -0.101161
H 1.250614 -1.152692 -0.735014
H -1.324394 1.305916 0.789553
H 3.216958 0.023724 0.469740
H 0.345140 0.829259 2.603570
H 2.749567 0.843188 1.943060
H -1.650237 1.598094 -0.966733
H -2.261184 -1.291459 -1.861872
H 2.224238 1.492244 0.422816
H -1.137206 -0.219686 -2.689418
H -0.626122 -1.852332 -2.070838