20
H11 C6 N3
C -0.174229 -1.486886 1.183091
C -0.938075 1.472268 0.515015
C 0.777870 1.530592 -1.295633
N 0.293304 0.873557 -0.051479
C -1.476711 0.214488 -0.142815
C 1.389673 -1.837336 1.448496
N 0.128544 1.077907 -2.418004
C -0.163735 -0.507893 -0.087116
N 1.428025 2.545803 -1.258669
H 0.188070 1.597059 -3.268715
H 1.426150 -2.599814 2.190182
H -2.489685 -0.040803 -0.439675
H 0.058699 -1.033686 -0.938404
H -0.614722 -2.315171 0.916382
H 1.878689 -2.025032 0.551757
H -0.543024 -1.001177 2.064886
H 1.811267 -0.882473 1.816770
H -1.231414 2.464036 0.002640
H -0.727383 0.444483 -2.407093
H -1.021311 1.510060 1.618407