22
H13 C7 N1 O1
C 0.249482 -1.508314 -0.337009
C -0.744140 -1.119975 2.048084
N -0.707768 0.355865 -0.175777
C -0.935101 1.772848 -0.153967
C 0.275934 0.237936 -2.477859
C 0.468724 -0.140273 -1.055271
C 1.289235 0.276473 1.458112
O 1.564675 1.412957 1.175004
C -0.023710 -0.504079 0.876535
H -0.816636 0.308014 -2.630993
H 0.037257 2.256938 -0.233472
H 1.640725 -0.328105 2.301730
H -1.240619 -0.373044 2.626526
H -1.577857 2.024732 -0.966768
H -1.381554 2.068419 0.889070
H 0.643152 1.243593 -2.682209
H -1.428673 -1.808678 1.680486
H -0.043078 -1.679230 2.733342
H 0.711430 -0.479044 -3.171122
H 1.048085 -2.124578 -0.172716
H 1.706803 -0.003401 -0.964552
H -0.736365 -1.889047 -0.767183