15
H6 C4 N2 O3
C -0.326273 -1.767321 0.950464
N 0.674347 -1.110896 1.450847
C 0.898881 0.079177 0.516805
O 0.457301 0.310919 -1.946556
C 0.364779 0.879793 -0.688139
N -0.631570 -1.214296 -0.104622
C -0.808146 1.645863 -0.582741
O -1.910574 1.293457 -0.927886
O 1.674960 0.611399 1.357814
H -0.629345 2.696765 -0.005942
H -1.362895 -1.076387 -0.750363
H 1.216725 -1.339644 2.277064
H -0.669519 -2.689216 1.311502
H -0.336765 0.159802 -2.140026
H 1.388092 1.520577 -0.718220