15
H6 C6 N1 O1 F1
C 1.680014 -1.100349 0.161780
C -1.563561 0.229038 -0.319873
C -0.279837 0.719615 -1.088768
N -0.931081 0.704914 0.994483
C -1.356265 -0.731626 0.826524
C 0.257178 1.063864 0.280862
F -0.340917 1.415487 -2.168400
C 1.086270 0.074124 -0.518013
O 1.520179 -2.234977 -0.206761
H -2.205272 -0.932637 1.452593
H 0.851205 2.010500 0.694856
H 1.839314 0.551583 -1.137748
H -2.498361 0.507948 -0.662303
H -0.547320 -1.460575 0.765906
H 2.488451 -0.816924 0.924841