18
H10 C6 O2
C 0.340907 0.016220 0.377179
C 1.038875 -0.246689 -0.976052
O -0.945729 1.708074 1.318802
C -1.248986 0.335247 1.691227
C -0.418200 -0.980725 1.322264
C -1.054190 0.743339 0.382851
C 0.285346 0.157349 -2.233341
O 1.322899 0.681349 1.175579
H -0.989270 -1.745702 0.798132
H 0.742015 -0.003851 -3.144578
H -1.849414 0.340072 2.621105
H 1.272206 -1.314994 -1.067061
H -0.010646 1.216273 -2.179883
H 1.880091 -0.095672 1.519416
H 1.991777 0.276857 -1.001594
H 0.149573 -1.481901 2.136829
H -1.766578 0.768417 -0.449493
H -0.740649 -0.373665 -2.291378