17
H8 C5 N2 O2
C 1.985479 -1.868759 0.619614
C -1.388348 0.450951 -0.278683
O -2.212252 1.437780 -0.636294
N -2.055938 -0.497642 0.046760
C -1.007341 -1.250249 0.543008
N -0.142020 -0.413751 0.086903
C -1.488726 2.620710 -0.940201
C 1.437504 -0.481369 0.204216
O 1.882088 -0.073306 -0.934652
H 1.694341 0.323871 1.091871
H -0.510417 2.590606 -0.427004
H 3.059108 -1.801418 0.733240
H 1.784769 -2.621029 -0.197723
H -2.093492 3.363159 -0.433475
H 1.487240 -2.328186 1.493599
H -1.417716 2.704889 -1.941258
H -1.014257 -2.156255 0.970062