15
H7 C5 N1 O2
C 2.484607 0.633550 0.874557
C -2.179868 0.438506 -0.314494
C 1.042693 0.218359 0.761588
O -0.400107 0.539552 -1.936325
C -0.923603 0.027258 -1.021034
O -0.490813 -1.182774 -0.597790
C 0.877586 -1.094340 0.015605
N 3.621264 0.736791 0.919110
H -3.027417 -0.140696 -0.865518
H 0.973471 -1.999090 0.691660
H 0.502769 0.100326 1.625561
H 0.514473 1.225590 0.334646
H 1.651562 -1.179331 -0.829637
H -2.402030 1.508661 -0.411776
H -2.244563 0.167653 0.753864