16
H7 C5 N3 O1
C 0.686478 -1.710010 -0.306733
N 2.217426 1.512126 -1.288770
C -2.536618 0.029252 1.521333
C 1.231456 0.541568 -0.822095
C 1.680307 -0.825323 -0.791343
O -1.901886 0.564714 0.289520
N -0.007117 1.029249 -0.518512
N -0.594612 -1.218628 0.105333
C -0.800997 0.071794 -0.001414
H 0.795621 -2.783082 -0.350680
H 2.739758 1.835420 -0.464461
H -3.423338 0.549434 1.627503
H -1.788302 0.304757 2.340459
H 1.718484 2.304319 -1.644194
H 2.667536 -1.179019 -1.075586
H -2.684171 -1.026560 1.379659