25
H16 C8 O1
C 0.026536 0.372317 0.227093
C -0.664318 -1.731295 -1.125261
C 1.390613 -0.209589 0.352671
C 3.912306 0.099995 0.887816
C 2.474936 0.701964 0.963549
O 4.520833 -0.254070 1.837619
C -2.497605 -0.051339 -0.366965
C -2.722261 1.431551 -0.271557
C -1.128006 -0.677038 -0.060899
H -1.516442 -2.471234 -1.247320
H -3.232909 -0.589472 0.280402
H 2.523725 1.671172 0.264973
H -2.424015 1.772468 0.671995
H -2.041433 1.969406 -1.129244
H -0.239743 0.944397 1.116660
H -2.854016 -0.443876 -1.348971
H 0.260568 -2.197314 -0.905050
H 2.303784 0.982036 1.993943
H -3.709391 1.629225 -0.540601
H 4.185525 -0.053527 -0.112652
H -1.158710 -1.221915 0.891490
H -0.009307 1.156020 -0.634594
H 1.785382 -0.507925 -0.614236
H 1.382099 -1.099317 0.999330
H -0.568175 -1.222673 -2.130196