18
H9 C7 N1 O1
C -0.761344 2.261734 -0.095754
C -0.943878 0.790296 -0.422258
C -1.444158 -0.151498 0.560212
C -0.084704 -0.346772 -0.027641
C 0.181953 -1.386980 -0.872122
C 1.252272 -0.197213 0.757911
N 1.358540 -2.012685 -0.482649
C 2.030253 -1.329361 0.478413
O 1.487603 0.748407 1.533473
H -1.352067 0.690800 -1.503631
H -1.725839 2.824550 -0.113274
H 1.627606 -2.947029 -0.887050
H 2.998336 -1.745555 0.843971
H -0.450561 -1.712968 -1.774538
H -1.496287 0.132884 1.648052
H -2.242850 -0.804792 0.268944
H -0.279157 2.366909 0.898553
H -0.155755 2.819243 -0.810620