16
H7 C5 N3 O1
O -1.288565 1.976742 2.903489
C -0.366028 0.012988 -0.156016
C -0.488883 1.297681 2.111866
N -0.009280 -1.247595 -0.501716
C 1.543946 -0.650530 -2.179067
C 0.893341 -1.732387 -1.486475
N 1.141322 0.589109 -1.887961
C -1.228827 0.672374 0.868198
N 0.373402 0.889240 -0.887130
H -1.674482 1.647436 0.372136
H -0.681065 -2.057183 -0.151795
H 1.117820 -2.705109 -1.652506
H 2.216497 -0.804282 -2.998062
H 0.415001 1.930300 1.654457
H -1.884354 -0.214391 1.215898
H -0.079812 0.395616 2.774704