19
H10 C6 N2 O1
C -0.373735 2.220670 -0.043665
C 0.157490 1.825703 -1.601054
N 0.171539 -0.097252 -0.071649
C 0.705377 -2.446566 -0.102869
O 0.977367 -2.128929 -1.360504
N -0.907578 0.421683 1.698314
C -0.723075 -0.963764 1.810960
C 0.063959 -1.243075 0.610116
C -0.435378 0.901245 0.600807
H 1.463641 -2.806113 -1.756258
H 0.325736 2.868394 0.470795
H -0.062410 -3.229296 0.043471
H -1.306312 2.729718 0.082448
H 1.569785 -2.715218 0.543686
H -1.422708 1.010510 2.428959
H 1.185014 1.477076 -1.683609
H 0.110143 2.737281 -2.165869
H -0.995013 -1.601959 2.544999
H -0.503855 1.039887 -2.049052