16
H7 C6 N1 O2
C 0.947804 -1.525907 0.462521
C 0.084078 -0.421027 0.905865
O -2.347371 0.072225 0.179139
C 0.142429 0.858483 0.007638
C -1.443913 -0.546767 -0.780695
N 1.551596 -2.316422 0.011317
O -0.562795 0.490878 -1.201748
C -1.322706 -0.873323 0.637923
C 1.435407 1.359858 -0.542041
H -0.387112 1.642527 0.597754
H 0.269902 -0.213988 2.061394
H 1.261483 2.286314 -1.075759
H -1.892111 -1.233756 -1.596275
H 2.167062 1.507223 0.324175
H -1.770736 -1.643855 1.207770
H 1.866969 0.557540 -1.198995