15
H6 C4 N4 O1
N -0.058500 -2.662996 1.657292
C -0.566443 0.628153 0.120694
C 0.800105 -1.028138 -0.016027
O -0.933585 -0.439232 1.071617
C -1.008004 2.580888 -0.849379
N -1.293817 1.530095 0.147968
C -0.086000 -1.527552 0.911559
N 1.811106 -1.676543 -0.578101
N 0.537220 0.225559 -0.476540
H -0.811255 3.534496 -0.167498
H -1.910684 2.734616 -1.324139
H 2.058900 -2.513119 -0.196250
H 2.473422 -1.195668 -1.204926
H -0.812336 -2.599613 2.325580
H -0.200092 2.409094 -1.421856