14
H6 C6 O2
O -2.431767 0.876943 0.120406
C -0.283012 -2.431521 0.930944
C 0.914651 0.911537 0.885472
O -1.085279 0.905756 -1.575231
C -0.134419 -1.365173 0.452083
C -1.357004 0.630756 -0.329928
C 0.023873 0.039292 0.025318
C 0.176597 0.282941 -1.517344
H 0.228555 -0.664239 -2.143987
H 1.327174 1.709323 0.455015
H -0.394399 -3.303920 1.366165
H 1.014679 0.966196 -1.800587
H 0.327728 1.286263 1.786695
H 1.672620 0.155838 1.344988