20
H11 C5 N1 O3
C -0.772422 0.784547 1.633772
C 0.191263 -0.656653 0.069464
O 1.270205 1.376116 -0.494221
C -2.351906 -0.702416 0.383474
O -3.390564 -0.327243 1.013558
C 1.078800 -0.130348 -0.846174
N -1.092834 0.031295 0.329339
C 2.428548 -0.709222 -0.946386
O -1.310352 0.946937 -0.828079
H 2.986474 -0.296066 -1.783240
H 0.655816 -0.211453 -1.839973
H -1.612395 0.440164 -1.468166
H -2.308263 -1.674524 -0.010450
H -0.761627 1.791805 1.398021
H 3.010074 -0.361027 0.029699
H 0.482348 -1.461033 0.743387
H 0.445996 1.829003 -0.850388
H 0.144093 0.546223 2.131076
H -1.605116 0.542134 2.344839
H 2.511871 -1.758215 -1.009580