23
H14 C7 O2
C -2.421465 -0.895907 2.313479
C 1.240567 1.891698 -0.352865
C 1.025095 0.347764 -2.400912
C 0.261205 -0.526772 -0.288048
C -0.920043 -0.429141 2.184465
O -0.618339 0.184380 1.012023
C 0.401554 0.786141 -1.050987
C 0.890622 -1.085122 -1.946492
O -2.166821 -1.195276 3.462847
H -0.247031 -1.320826 2.316991
H 1.762830 -1.663474 -1.890617
H 1.471168 2.657969 -0.985360
H 0.088974 -1.595508 -2.524064
H -0.628354 1.183186 -1.229610
H -0.396897 -1.344514 -0.280173
H 2.043287 0.703771 -2.589658
H 1.147902 -0.728232 0.296343
H 0.440375 0.650674 -3.283636
H -3.094668 -0.026766 2.145281
H 2.303949 1.457808 -0.021812
H -0.650334 0.310217 2.983663
H -2.626139 -1.651130 1.606553
H 0.692544 2.289104 0.522574