21
H12 C9
C -1.034744 -0.318993 0.680377
C 1.121319 -0.570617 -1.020304
C -2.944819 -1.481812 1.847480
C -0.013024 -0.383044 -0.120841
C -2.006068 -0.863816 2.891759
C 2.883503 1.356041 -1.677573
C -2.143995 -0.269692 1.515948
C 1.521203 1.876738 -1.913030
C 1.700157 0.437254 -2.028997
H 1.324279 2.446510 -2.766111
H 1.949718 -0.807733 -0.327545
H -4.038516 -1.448461 2.022362
H 0.856715 -1.571461 -1.591942
H 1.699952 0.078822 -3.083168
H -2.686735 0.720900 1.487635
H -2.607116 -2.382582 1.376402
H -2.295946 -0.320615 3.744808
H 3.245451 1.316714 -0.718600
H 3.652656 1.417814 -2.416663
H -1.143162 -1.523315 3.108142
H 0.959135 2.291331 -1.010145