23
H14 C7 O2
C 0.403068 0.972791 -0.430459
C 1.793782 2.642364 -1.798549
C -0.816693 -0.830131 0.911551
O -0.279512 -2.175586 0.795066
C -0.471589 -0.274517 -0.443889
C 0.799342 1.464694 -1.855224
O -2.943372 -1.672955 1.453368
C -2.244275 -0.797040 1.190302
C -0.114675 -2.886649 2.044469
H -2.624827 0.284678 1.137810
H 2.036643 3.055612 -2.816141
H -0.233051 -0.371683 1.797701
H -0.137286 1.744264 0.152539
H -0.998173 -2.761972 2.679482
H 0.756485 -2.529539 2.554532
H 1.257433 0.723956 -2.391096
H -1.458853 -0.048714 -0.983592
H -0.072720 1.871486 -2.364999
H 1.450967 3.516312 -1.226261
H -0.090063 -3.955487 1.772052
H 1.332715 0.698600 0.180850
H 2.697513 2.385772 -1.217227
H -0.042850 -1.056223 -1.142279