19
H10 C7 O2
O -1.473845 -0.007867 -1.550996
C 0.951203 -1.607135 0.568617
C -2.492194 -0.514648 -0.801323
C 1.334330 1.023261 1.142027
O -0.099097 1.553784 1.213499
C 0.989363 -0.104983 0.304884
C -1.161575 1.131155 -0.845537
C -0.120748 0.844645 0.119119
C 2.054959 0.744123 -0.181120
H -3.373220 0.118264 -0.908635
H -2.402222 -0.579262 0.320027
H -2.357724 -1.604209 -1.084211
H 3.138202 0.391302 -0.059036
H -1.600939 2.009087 -0.983274
H 0.788108 -2.152525 -0.373630
H 1.889677 1.299973 -1.154303
H 1.834405 1.253357 2.048975
H 1.935379 -1.925501 0.939883
H 0.165945 -1.872826 1.285035