12
H6 C6
C -1.238404 -0.072533 2.222661
C -0.814939 -0.187288 1.111914
C -0.326351 1.957028 -1.639669
C -0.321789 0.914806 -0.996557
C 1.174423 -0.915047 -0.190360
C -0.261052 -0.380296 -0.237567
H 1.203221 -1.879522 0.335557
H -0.866331 -1.075262 -0.775863
H 1.837402 -0.218321 0.354862
H 1.574283 -1.046069 -1.194459
H -0.337751 2.853184 -2.207874
H -1.622708 0.049324 3.217345