20
H11 C8 N1
C 1.083074 0.236722 0.582645
C -0.958649 -0.446750 1.614180
C 2.017513 -0.750068 0.097588
N 1.258002 0.128281 -0.913448
C 0.564241 1.452606 1.252172
C -0.862882 0.929881 0.892144
C -0.984485 -0.098813 -2.204210
C -0.032140 -0.589612 -1.169500
C -0.293848 -0.370465 0.367487
H 0.471832 -1.597765 -1.395997
H -1.635825 -0.960476 -2.515808
H -1.659129 1.559421 0.646632
H 0.842955 2.410121 0.804176
H -2.112450 -0.666744 1.710279
H -0.521247 0.357184 -3.050637
H 3.057601 -0.524021 -0.015827
H 0.741550 1.509158 2.290192
H 1.891710 -1.834739 0.330549
H -1.666317 0.636210 -1.723101
H -0.511053 -0.590919 2.554662