14
H5 C4 N5
N -1.266680 0.644396 1.344856
C -2.563533 0.376934 0.923374
N -0.815358 -0.905515 -1.660247
N 0.451389 -0.652254 -1.353895
N -1.363467 -0.390062 -0.591959
C 2.135674 0.236902 0.278159
C -0.488740 0.127120 0.388831
C 0.846062 -0.088968 -0.104903
N -2.644317 -0.182125 -0.195264
H 2.364957 -0.378687 1.232889
H 2.929351 -0.031957 -0.422756
H 1.165679 -1.032516 -1.982280
H 2.227448 1.246299 0.502460
H -3.403698 0.695442 1.603956