18
H9 C6 N1 O2
O 1.799590 -0.449774 1.221528
C -0.574672 0.190563 0.520984
C -0.415880 -1.118252 -1.607193
N 0.893652 -1.299105 -0.792777
C 0.553003 -0.859356 0.564899
C 0.557808 -0.073824 -1.662468
C -0.077982 1.589410 1.099767
C -0.755024 0.240215 -1.053096
O -1.852307 -0.304310 0.997693
H -0.857099 -1.776801 -2.239279
H 0.176675 -1.717538 1.056273
H 0.794155 1.885221 0.686684
H -0.820781 2.320225 0.871532
H 2.456128 -0.832688 0.645169
H -1.443331 0.869100 -1.561591
H -1.742525 -0.266930 1.952063
H 1.150363 0.414574 -2.507696
H -0.001810 1.430602 2.165718