18
H9 C6 N1 O2
O 1.279283 -1.251597 0.022976
C -1.126091 -1.535251 0.813789
C -0.922896 0.869639 0.321231
N -1.238015 -0.159114 1.276769
C 0.197118 0.846830 -0.285367
O 0.503458 -3.267729 0.266143
C 1.379345 0.168665 0.227192
C 0.292864 -2.098765 0.358953
C 0.395489 1.560862 -1.714589
H 0.529379 0.725352 -2.498051
H -1.578037 1.599067 0.146619
H -1.411842 -2.178416 1.588857
H 1.512821 0.471838 1.211748
H 2.360069 0.445943 -0.354348
H 1.257677 2.111459 -1.747290
H -0.522109 2.129933 -2.029062
H -1.722021 -1.633515 -0.069860
H -2.119424 -0.060612 1.682095