15
H7 C5 N1 O2
C -0.528395 0.263206 0.349864
C 0.365519 -1.727467 -0.678798
C 1.475603 -1.073444 0.186136
N -0.716721 -0.927658 -0.551311
C -0.971894 1.543595 -0.369906
O 2.587992 -1.559754 0.326943
C 0.909393 0.207683 0.787583
O 0.405437 -2.741719 -1.340970
H -1.979469 1.606757 -0.647272
H -0.831580 2.408387 0.382643
H 1.014091 0.137760 1.907569
H -1.531265 -1.140315 -1.056690
H 1.563689 0.994533 0.387839
H -1.221016 0.108837 1.267220
H -0.276315 1.694484 -1.209614