18
H9 C6 N1 O2
C 1.476273 0.393812 0.151483
C 0.309396 1.318331 0.356033
C -0.799587 0.346325 0.709456
C 0.361296 2.520127 1.408088
O -1.193540 -1.723087 -0.510222
N 0.857359 -0.697667 -0.636364
C -0.905740 -2.513075 -1.680227
C -0.322886 -0.764347 -0.216031
O 0.724772 2.354727 2.513646
H 0.071740 -2.936065 -1.585127
H -0.708512 0.103683 1.770051
H 2.395689 0.737331 -0.262490
H -1.822068 0.666971 0.476051
H -0.986683 -1.873770 -2.586173
H 0.092615 3.599244 0.985892
H 0.111576 1.757349 -0.634914
H -1.604822 -3.268558 -1.695607
H 1.749591 0.001097 1.210405