19
H10 C8 O1
C 1.036475 0.111758 -0.989614
C -0.607248 -0.128779 0.372379
C 1.127480 0.769360 1.438017
C 0.846096 -0.457669 0.556799
C 0.332866 1.424168 -0.775915
C -1.780889 -0.937846 0.532476
C -0.208870 1.301203 0.598544
O 0.802005 -1.762615 -2.456299
C 0.403160 -0.742853 -2.080949
H 0.307280 2.170291 -1.470091
H -2.095534 -0.933805 1.544873
H -2.610908 -0.567841 -0.106710
H 0.863026 0.557364 2.450878
H 2.114220 0.228447 -1.229786
H 1.996189 1.371968 1.325619
H 1.201825 -1.361352 0.757719
H -0.611835 -0.360910 -2.518334
H -1.664997 -1.985276 0.215048
H -0.791192 2.119212 0.952297