17
H8 C8 O1
C 0.630941 -0.829569 -1.229968
C -0.535753 -0.300759 1.246234
O 0.723311 1.538103 -0.989585
C 0.668040 -0.238265 0.462198
C -0.241855 0.657185 -0.610286
C -1.321886 0.868287 0.585983
C -0.143654 -1.415386 0.124585
C -0.768204 -0.749436 -1.110599
C 1.446590 0.950993 0.096470
H 1.454487 1.696360 0.902063
H 2.555007 0.788295 -0.155909
H 1.231343 -1.072835 -2.018333
H -2.380066 0.713442 0.454792
H -0.699992 -0.500928 2.339147
H -1.171100 1.829070 1.110143
H -1.600366 -1.126858 -1.639492
H 0.076847 -2.488459 0.361928