16
H7 C5 N3 O1
C 0.154253 -0.203294 -1.216295
N -1.139383 -1.849107 1.614458
C 1.288983 0.620248 -0.577585
C -0.785379 -1.037650 0.726713
C -0.672343 0.351025 0.978109
O 2.090989 1.466689 -1.185442
C -0.437561 -1.264704 -0.653094
N -0.123301 1.069972 -0.231941
N -0.949755 1.080891 2.021986
H 1.687328 2.257004 -1.324831
H -0.675598 -2.246781 -1.142634
H -1.111939 0.446284 2.782879
H 0.190959 -0.052602 -2.320006
H 1.769147 0.005362 0.308016
H -1.325971 -2.736844 1.128777
H -0.721502 1.730329 -0.628274