15
H6 C6 N2 O1
C -0.235805 1.488311 -0.529216
C -0.569747 -2.047981 -2.362885
C -0.501777 -1.808631 -1.271582
N 0.503815 0.855636 2.724520
C 0.620275 0.479090 1.542557
C 0.787445 -0.622302 0.595165
O -1.086741 -1.808503 1.037567
C -0.452648 -1.537806 0.210150
N 0.738021 0.759080 0.190226
H 1.743314 -1.151527 0.577197
H 0.321262 1.820875 2.807985
H -0.108827 1.234975 -1.644953
H -0.129336 2.543525 -0.392296
H -0.644474 -2.251065 -3.375200
H -1.289448 1.157831 -0.301437