19
H11 C6 N1 O1
C -0.557740 -0.045143 -1.545291
C 0.816131 0.222600 2.835074
C -1.986804 0.150708 -2.007349
C 1.749489 -0.889904 0.824644
C -0.344583 0.460554 -0.118189
O -0.164482 0.893092 3.182607
C 1.087623 0.292131 0.254397
N 1.449457 0.210820 1.680924
H -2.115135 -0.145544 -3.025971
H -0.234006 -1.072259 -1.616091
H 2.771327 -1.201878 0.605905
H 1.322272 -0.410515 3.608713
H -2.300610 1.134702 -1.907401
H 0.093855 0.548646 -2.178339
H 1.752472 1.055289 -0.240587
H -0.933439 -0.176674 0.542546
H 1.085172 -1.804451 0.930862
H -0.683706 1.496912 0.042617
H -2.677804 -0.425558 -1.416688