19
H10 C6 N2 O1
C 0.078789 0.207387 -0.453101
C 1.194182 0.791305 0.517923
C -1.318324 0.160637 0.154287
C 0.009640 -1.373099 -1.150215
C -1.496975 0.321352 1.678583
N 1.349870 -1.352770 -0.943421
O -2.326794 0.168178 -0.494139
N 0.310477 1.667937 -2.576018
C 0.200887 0.950908 -1.675287
H 2.067142 0.940003 0.086901
H -1.207633 1.316800 2.009951
H 1.195631 -1.773792 0.229985
H -2.519346 0.186477 1.973223
H 1.886854 -1.134827 -1.873096
H 0.807853 1.831794 0.870447
H -0.446691 -2.170284 -0.631130
H 1.282566 0.216968 1.461225
H -0.309609 -1.334376 -2.193595
H -0.876292 -0.344649 2.198955