18
H9 C6 N1 O2
C -0.934075 0.980779 1.373461
C 0.817718 -0.479798 0.575645
C -0.614036 -0.368742 0.911652
C -0.222221 0.592247 -1.238435
O 2.416678 0.321491 -2.367805
C 2.199429 -0.134541 -1.290651
C -1.314721 -0.214068 -0.422437
N 0.997845 -0.062553 -0.700417
O -1.028824 -1.327556 1.856111
H -2.341641 0.254421 -0.372923
H -0.248228 1.641634 -1.064464
H -1.458707 -1.177015 -0.960477
H -0.247490 0.368505 -2.288179
H 1.612737 -0.945537 1.185916
H -1.914042 1.083869 1.929777
H -1.053287 -2.182770 1.449029
H -0.331911 1.795728 1.349494
H 2.944230 -0.554859 -0.643203