19
H10 C7 O2
C 1.554068 -1.446064 0.111689
C 0.127589 2.070689 0.067717
C 0.574733 0.737565 -0.450349
C -0.752703 1.332926 -0.860876
C -1.712430 0.337689 -0.360097
O 0.253049 -0.128829 1.703499
C -0.927740 -0.999691 -0.121096
O 0.413493 2.983671 0.658566
C 0.379918 -0.551965 0.346149
H -0.939730 1.840581 -1.758599
H 1.333917 -2.404019 0.634028
H -2.195849 0.599519 0.591727
H 1.481708 0.902948 -1.108872
H 2.472147 -1.101672 0.544859
H -2.596721 0.182022 -1.106983
H -1.504780 -1.680423 0.620860
H 1.031328 0.152998 2.078856
H 1.704368 -1.672078 -1.023341
H -0.853618 -1.557391 -1.067512