17
H8 C7 N2
C -0.683779 1.658303 1.006185
C 0.479480 -1.790609 -0.682347
C -1.287147 -0.166835 0.313529
C 1.414202 -1.280091 0.138597
C 1.060530 0.199473 0.375093
C -0.529318 -0.771941 -0.975779
N -1.041699 1.240369 -0.325543
C 0.246069 0.548710 -0.889672
N -0.138997 0.269812 1.356121
H 0.717999 0.989635 -1.761165
H 0.449111 -2.754697 -1.149636
H 2.146859 -1.841047 0.649922
H 1.858628 0.787853 0.702982
H -2.159029 -0.507943 0.705993
H 0.066423 2.479892 1.090576
H -1.228951 -0.888421 -1.793381
H -1.544970 1.957758 1.635898