14
H5 C6 N1 O2
O 1.091392 2.511561 -0.740522
C -1.213404 -1.602370 1.905069
N -0.691448 1.258024 -1.509430
O 1.421563 0.504941 1.170102
C 1.056111 0.209506 -0.114595
C -1.048745 0.080868 -1.164400
C -0.716096 -1.256098 0.915447
C 0.522520 1.423761 -0.836188
C -0.143098 -0.717925 -0.359997
H 1.821550 1.352262 1.204145
H 0.172371 -1.592587 -0.975192
H -1.694176 -1.920463 2.779535
H 1.916443 -0.165855 -0.734350
H -2.042140 -0.320891 -1.467689