16
H7 C8 N1
C -0.641253 -0.543280 1.589781
C -0.952350 -0.624389 -3.161129
C 0.491734 -1.346528 1.000654
C -0.570549 0.668368 0.529087
C 1.077755 -0.415726 0.110365
C 0.075375 0.141356 -0.816179
N 1.295272 1.013230 -0.934046
C -0.443612 -0.302737 -2.085082
C 0.911926 1.110897 0.572232
H -1.622238 -1.010990 1.639572
H -1.403098 1.358664 0.477942
H 2.055672 0.878993 -1.233619
H 1.315953 1.746990 1.269695
H -0.425288 -0.131243 2.636629
H -1.365929 -0.891290 -4.098067
H 0.589514 -2.426747 1.079415