21
H12 C8 O1
O 1.073339 1.411768 1.943637
C 0.826298 -0.951371 -1.134237
C -0.468516 -1.730708 -1.009655
C -0.933446 1.038597 0.552081
C 1.308824 -0.310148 0.221257
C -1.784587 0.072581 -0.088956
C 0.553116 0.940750 0.696860
C 1.241439 2.211443 0.800750
C -1.360580 -1.431896 0.077413
H 0.677863 3.104699 0.747541
H -2.212887 -2.133200 0.005757
H -0.788732 -2.369831 -1.804615
H 0.780457 -0.159686 -1.815435
H -1.891833 0.363246 -1.178464
H 1.555943 -1.708958 -1.478915
H 1.324150 -1.098651 1.026513
H 2.438877 -0.089389 0.020702
H -1.275769 1.918046 0.840289
H 2.346631 2.323006 0.432914
H -0.920351 -1.548355 1.135707
H -2.800329 0.125693 0.369213