12
H3 C6 N3
C -2.163662 -0.312520 -2.226658
C 1.167746 0.275827 1.183555
C 0.963820 0.916427 -0.791452
C -0.083616 -0.244473 0.792508
N 1.803697 1.002745 0.276325
C -0.167106 0.146747 -0.515058
N 0.964986 -0.357334 2.367827
C -1.264062 -0.107730 -1.434983
N -0.360929 -0.824251 1.890059
H 1.149991 1.348845 -1.739837
H 1.223398 -0.518849 3.184748
H -2.882888 -0.629532 -2.929106