18
H9 C5 N3 O1
C -1.403605 -2.591161 0.094568
N 1.428174 1.395550 0.253328
C -0.786047 -1.185211 -0.075572
N -1.523780 -0.172257 0.663588
C 0.288508 -0.721117 -0.690436
N -0.910186 0.877761 0.327342
C 1.087713 2.692280 0.781102
C 0.461209 0.658909 -0.424288
O -0.859396 -3.480507 -0.818963
H 1.047031 -1.354233 -1.191021
H -0.970120 -3.143153 -1.662048
H -2.531403 -2.552850 0.129693
H 2.085763 3.143277 1.273541
H 0.806017 3.408867 0.012895
H 0.394712 2.641126 1.575176
H 2.047824 0.779723 0.734553
H -1.108576 -3.037076 1.016350
H 0.373952 1.274916 -1.426697