16
H7 C7 N1 O1
C -0.260974 0.818103 1.249728
C 0.594342 -2.761000 -0.077517
C 1.208032 -0.076535 -2.240598
N 1.225753 0.048980 -3.440667
O -0.480505 2.068983 1.829971
C 1.116529 -0.229615 -0.707123
C 0.085545 0.795408 -0.200961
C 0.857287 -1.658396 -0.358840
C -1.239039 0.384604 0.213891
H 0.354143 0.183857 1.892647
H -1.413888 2.059755 2.244656
H 0.332359 -3.784664 0.154900
H -1.437106 -0.706630 0.270700
H 0.223258 1.723817 -0.639921
H 2.056656 0.038452 -0.373100
H -2.098330 1.036057 0.033681