15
H8 C6 O1
C -0.882757 -0.239012 0.079789
C 0.380496 -0.387331 2.190919
C -1.077900 0.433939 -1.313670
C 0.440418 -0.639697 0.615856
C 0.010331 0.648001 -2.198982
O -1.183041 1.258575 -0.067409
C 0.909012 0.873284 -2.952048
H -1.940323 0.297709 -1.694484
H -1.789791 -0.702649 0.468207
H 1.440980 -0.754467 2.608045
H 1.220682 -0.028005 0.172042
H 0.296952 0.655562 2.420625
H 0.636121 -1.634479 0.347314
H -0.340433 -0.986759 2.690671
H 1.678369 1.052918 -3.585621