13
H7 C4 N1 O1
C -0.208000 -0.449611 0.845121
C 0.870664 0.839415 -0.425606
C -0.623022 0.691309 -0.030336
C 0.553500 -0.661589 -0.450381
H -1.056014 -1.220807 1.027612
H -1.410139 1.531503 0.138119
H 1.553223 1.188709 0.389016
H 1.033242 -1.570661 -0.776554
H -0.046385 -0.026389 2.656641
H -0.671010 0.124730 -2.071915
H 1.051909 1.330416 -1.284383
N -0.791810 -0.257035 -1.116558
O 0.503348 -0.309553 2.034919