13
H7 C4 N1 O1
C -0.094428 0.262839 -0.586217
C 1.061444 0.325215 -0.921550
C -1.768428 0.201379 0.976712
C 2.449578 0.395200 -1.379888
H -2.852386 0.131799 0.995630
H -1.331795 -0.987471 2.555576
H -1.153348 -1.753535 1.024397
H 2.641065 1.270522 -1.946922
H 2.703377 -0.542950 -1.836265
H 3.157437 0.466124 -0.454373
H -1.501444 1.133117 1.466481
N -1.155735 -0.909397 1.627706
O -1.432877 0.347660 -0.362452