17
H8 C5 N2 O2
C 0.849187 -0.045188 -0.431508
C -0.210507 -0.216525 0.571054
N 0.761651 -0.298802 -1.653840
O -2.455382 -1.015514 0.994633
C -0.548974 1.183073 1.122871
C 2.390556 0.130269 -1.382317
C -1.498845 -0.928266 -0.040693
O 2.142879 0.180025 0.026070
N 2.889885 0.148989 -2.159336
H -3.226358 -1.425820 0.590157
H -1.190361 -1.821151 -0.495237
H -1.401471 1.207875 1.846351
H -0.769533 1.898673 0.313904
H 0.024577 -0.868851 1.417274
H 3.800114 0.502782 -1.494546
H -1.892923 -0.252198 -0.882204
H 0.335534 1.620653 1.657352