15
H7 C5 N3
C -1.499242 1.859380 0.066884
C 0.448921 0.317403 0.753805
N -1.468559 -0.291399 -2.178031
C -0.771459 -0.299166 -1.148760
N 0.320260 -1.242466 -0.874470
C -0.598293 0.621835 -0.099761
C 1.007119 -0.865564 0.280962
N 2.107607 -1.613525 0.616199
H 0.815485 0.756454 1.636743
H -2.091908 1.825294 0.985077
H -2.280094 1.879502 -0.771182
H 1.984637 -2.580010 0.684401
H -0.943923 2.804863 0.053785
H 2.507283 -1.174371 1.502710
H 0.462164 -1.998256 -1.508359