18
H9 C7 N1 O1
C 2.078633 -0.061210 0.813996
C -0.678851 0.797695 -1.467438
C 0.357928 -0.127622 -1.150627
C 0.419730 -1.567267 0.088919
C -1.873821 0.388280 0.649693
O 2.356822 0.274208 1.923632
C 0.657029 -0.169461 0.303925
C -0.408544 0.745140 0.947021
N -1.207254 1.348958 -0.136556
H 2.897042 -0.393507 0.089388
H -1.548213 0.339110 -2.070252
H -0.061048 1.256897 1.817841
H -0.017497 -2.054213 0.980414
H 0.986250 -2.241524 -0.416823
H -2.677146 0.724351 1.334915
H -0.337448 1.680281 -2.044671
H 1.093966 -0.350532 -1.950254
H -2.037585 -0.589556 0.286901