17
H8 C6 N2 O1
C 1.919484 0.294622 -0.996614
C 0.828923 0.773950 -0.048327
C -1.213133 -0.221749 0.205371
N -1.925207 -1.217686 0.793196
C 0.017697 -0.271518 0.629345
C -0.376332 1.561111 -0.701721
N 0.288268 -1.412075 1.425572
C -0.999809 -1.968751 1.525112
O -1.663491 0.767899 -0.565089
H -0.550367 2.526511 -0.192121
H 1.527882 -0.371238 -1.751193
H -0.177723 1.695067 -1.808631
H 1.299311 1.421310 0.718222
H -2.909645 -1.519500 0.636316
H 2.722773 -0.325077 -0.395300
H 2.488076 1.093468 -1.478953
H -1.276705 -2.826380 2.004815