14
H5 C6 N1 O2
O 0.443044 -0.018217 2.946924
C 0.382293 -0.160920 1.777482
C -1.383632 1.262981 0.346847
C 1.196214 -1.100875 0.890065
N 0.276384 -0.588017 -1.457757
C -0.696035 0.431406 -1.757133
O -1.587017 1.335932 -1.017105
C -0.375941 0.405121 0.588012
C 0.297939 -0.316640 -0.253584
H 2.253842 -0.840995 0.811394
H 1.074872 -0.848948 -2.002797
H -2.027762 1.929109 0.905560
H 1.047174 -2.130190 0.984149
H -0.901375 0.640233 -2.762056