19
H10 C7 O2
O 0.730977 -3.919205 -1.053398
C -0.144765 -3.183838 -1.313982
C 0.945290 -0.964692 -0.607990
O 0.948811 1.635135 1.044383
C 0.104287 0.342697 -0.848277
C -1.016511 -0.577223 -1.375149
C 0.669370 2.301045 2.247543
C -0.092978 -1.751497 -1.098729
C -0.271530 1.067605 0.491597
H -1.955825 -0.620122 -0.819053
H 0.188537 1.656102 3.046664
H 0.474700 0.994582 -1.515745
H 1.643368 2.606087 2.588771
H -0.986565 1.890387 0.272057
H -1.279143 -0.453211 -2.394673
H -0.760216 0.399100 1.215363
H -1.134373 -3.501622 -1.754467
H 0.013788 3.169739 2.108384
H 1.922761 -1.091046 -0.233308