15
H6 C7 O2
O 1.070567 2.629000 -0.478959
C 0.003530 1.309921 1.345858
C -0.404846 -1.721845 -0.873981
C -0.090554 -1.286392 -2.062217
C 0.290597 0.400800 -0.866921
C -0.146488 -0.236723 1.430492
O 0.369116 0.014788 -2.111550
C -0.183743 -0.642200 -0.012145
C 0.557656 1.613351 -0.083188
H 0.580021 1.735427 2.087242
H -1.005406 1.759783 1.407088
H -0.933031 -0.548922 2.081846
H -0.152392 -1.674202 -3.079930
H -0.777047 -2.770418 -0.698191
H 0.821998 -0.582356 1.914548