16
H8 C5 N2 O1
C 0.564769 1.968390 0.314688
C -0.663665 -0.736799 -0.859148
N -1.137199 -1.522699 -1.879195
C -0.283206 0.782016 0.737648
C 0.485715 -0.395100 1.209038
N -1.190220 0.383528 -0.370269
C 0.410299 -1.338956 0.021299
O 1.051889 -2.368867 -0.245834
H -0.024699 -0.940903 2.042331
H 1.541281 -0.254895 1.454481
H -1.020149 1.124830 1.514961
H -0.025065 2.770439 -0.056339
H 1.167760 2.242118 1.196983
H 1.294133 1.674894 -0.429878
H -0.478494 -2.287807 -2.113220
H -1.693149 -1.100177 -2.537573