17
H9 C6 N1 O1
C -0.194466 -0.622130 -0.135058
C -0.665638 -1.889553 -0.635834
C 1.320372 1.070996 0.812196
C -0.601042 0.735220 -0.713950
C 1.207754 -0.392428 0.455564
C 0.045825 1.751276 0.251075
O 2.122352 1.584984 1.459304
N -1.077980 -1.391188 0.670108
H -0.626407 2.050612 1.050953
H 1.434757 -1.013830 1.295206
H -1.648239 0.808324 -0.698533
H 1.986940 -0.556407 -0.291216
H 0.349033 2.659491 -0.214064
H -0.072344 -2.794479 -0.652779
H -2.052844 -1.011994 0.584839
H -1.345853 -1.878703 -1.524966
H -0.182163 0.889818 -1.712885