16
H7 C7 N1 O1
C -1.844998 1.082855 -0.287791
C -0.473247 0.379305 -0.198945
C 0.488269 0.554005 -1.318371
O 0.302637 0.786212 1.020509
C 1.593757 -0.102706 -0.709980
C -0.362103 -1.085003 0.247559
C 1.014968 -0.402489 0.662201
C 1.868540 -1.000806 1.700170
N 2.546385 -1.450138 2.522210
H -0.981048 -1.305357 1.162928
H 2.583994 -0.320002 -1.122794
H 0.407103 0.912215 -2.241852
H -2.471002 0.671980 -1.109483
H -0.424475 -1.838284 -0.524583
H -1.765001 2.156947 -0.420577
H -2.483788 0.961263 0.618815