14
H5 C5 N3 O1
C -1.513445 2.272433 -1.338671
C -0.603880 1.110653 -1.069466
O 0.241403 0.885768 -1.859955
C -0.332382 -0.733740 0.445654
C 1.195578 -0.635428 0.701012
C 1.870801 -1.894778 0.698344
N 2.412960 -2.874414 0.728970
N -0.928668 0.543656 0.094545
N -2.169844 3.222815 -1.562489
H -0.770658 -1.179759 1.329824
H -1.833294 0.827730 0.636467
H 1.295939 -0.117189 1.658171
H 1.634778 0.052899 -0.081838
H -0.499275 -1.480664 -0.380588