21
H12 C8 O1
O 0.669031 1.964473 -0.279743
C 0.071205 0.771592 -0.091610
C -2.037474 -0.513880 0.703749
C 0.181375 0.205527 1.406469
C 0.982819 -1.513491 -1.156813
C 0.631982 -0.103822 -1.183765
C 2.070195 -0.421020 -1.243215
C -1.451416 0.715652 0.081893
C -1.383225 0.434787 1.612376
H 0.871842 -2.137809 -2.068262
H -1.851649 0.944105 2.413455
H 2.642066 -0.281259 -0.323445
H -1.629607 -1.517868 0.525259
H 0.883736 0.904471 2.001148
H 0.960646 -2.091997 -0.266548
H -2.130132 1.507576 -0.419609
H 0.507500 -0.789186 1.588208
H 2.642144 -0.339038 -2.175530
H 0.357251 2.517838 0.424319
H -3.194479 -0.550931 0.654316
H 0.206208 0.294285 -2.202651