15
H6 C5 N4
N -1.036366 1.495672 -0.504325
C 0.989225 -1.463489 -0.797595
N 0.436988 0.416437 0.828714
C -0.015347 -2.020318 0.172857
N -0.110331 2.572873 1.382904
C -0.268940 1.523720 0.535022
C -1.054964 0.171553 -1.008005
C 0.055123 -0.559844 -0.201518
N -1.717765 -0.175163 -2.009306
H -0.899648 -2.586214 -0.226321
H 0.904768 -1.696586 -1.818990
H -0.344146 3.509276 0.909705
H 0.688841 2.532625 1.994144
H 2.078099 -1.449180 -0.452799
H 0.294451 -2.271355 1.195515