18
H9 C7 N1 O1
O 1.202058 0.080323 -2.266584
C -0.800248 1.505301 1.822745
N 0.583549 -0.472488 1.215807
C 0.438978 -0.272461 -0.163969
C -0.374797 -1.190104 -0.980755
C 0.439786 -1.182595 -2.344603
C -0.593677 0.072168 1.985303
C 1.103203 0.567432 -0.951578
C -1.073198 2.663643 1.587101
H -0.180015 -1.096458 -3.124399
H -1.324699 3.688371 1.472657
H 1.464171 -0.180690 1.597285
H -0.314129 -0.085313 3.097673
H -1.410575 -0.549898 1.858011
H -0.472365 -2.203996 -0.577872
H 1.583949 1.478488 -0.748298
H -1.447574 -0.831824 -1.132441
H 1.175604 -1.989919 -2.346080