17
H8 C6 O3
O -0.603155 0.381534 3.316420
C 1.042982 0.139412 -0.883411
C 1.016788 -0.149900 0.629683
O 2.148217 -0.598535 -1.386226
C -0.320189 -0.369843 -1.354179
C -0.342013 0.169163 0.973849
C -1.104144 0.444849 2.228489
O 1.560907 0.641592 1.498271
C -1.287673 -0.011354 -0.167233
H -2.045878 -0.782443 -0.033179
H -0.255713 -1.433654 -1.543191
H -2.139369 0.723333 2.065237
H -0.579890 0.148504 -2.398979
H 1.227661 -1.167459 0.789435
H 1.157657 1.164797 -0.998089
H 2.313560 -0.227254 -2.299861
H -1.789728 0.927254 -0.437038