14
H6 C5 N2 O1
N -2.154263 0.104738 0.056660
C 0.262178 1.836400 0.992980
O 1.279939 2.339727 1.339535
C 1.044369 -1.349551 -0.474638
C -0.318853 -1.357912 -0.207112
N 0.296729 0.557263 0.372245
C 1.486696 -0.119380 -0.010985
C -0.839103 -0.072361 -0.433900
H 2.444560 0.345282 0.183813
H -0.819861 -2.207298 0.264064
H -0.853392 0.266908 -1.483838
H -2.731778 -0.316207 -0.567939
H -0.777862 2.127314 0.938811
H 1.680660 -2.154904 -0.969681