14
H5 C5 N1 O3
O -1.449867 0.163915 -2.262406
C 0.828760 -1.122679 0.379715
O -0.314007 -1.987687 0.023090
C -0.504532 1.338369 -0.307516
C 0.132917 -1.115608 -0.960100
C -0.696103 0.145980 -1.233083
O 0.915543 -0.309487 2.584827
C 0.518058 -0.200340 1.421536
N -0.254082 0.842181 1.058340
H 0.451837 -1.551143 -1.856916
H 0.369883 1.875736 -0.656955
H -0.443690 1.508851 1.781335
H -1.338800 1.995763 -0.378978
H 1.784082 -1.583854 0.407104