14
H5 C4 N2 F3
C -1.529897 0.632503 -0.016026
C 0.467519 0.022162 -0.094147
N 1.976433 -0.479144 0.284788
C -0.566932 -0.176312 0.852499
N -0.487286 0.897228 -0.918298
C 1.266364 -0.905547 -0.866045
F -2.463375 -0.260983 -0.597768
F -0.072372 2.075761 -0.976389
F -2.240414 1.531789 0.528234
H -0.907718 -1.067302 1.280448
H -0.231779 0.436100 1.820502
H 0.891478 -2.017009 -0.799193
H 1.824297 0.069703 -1.640178
H 2.073670 -0.758960 1.141583