16
H7 C6 N1 O2
O 2.407172 -0.324059 0.496086
C -2.136106 0.734730 -1.332867
C -1.016587 0.334848 -0.481554
C 2.009315 -0.912203 1.591160
C -1.029024 -0.192184 0.694377
C 1.114704 -0.077691 0.344737
N 2.318677 -1.564415 2.433301
C 0.446310 0.487410 -0.872320
O 0.254360 -0.389232 1.230464
H -3.108532 0.545776 -0.872008
H 0.798805 -0.041067 -1.849995
H -2.136022 0.141941 -2.264343
H -1.795127 -0.469858 1.398813
H 0.731533 1.538007 -1.132430
H 3.303462 -1.603982 2.241102
H -2.162916 1.791982 -1.624520