19
H11 C5 N1 O2
C -0.384446 -1.189503 0.824357
N -0.422759 -0.506491 -1.546103
C 0.395984 -0.941271 -0.430659
O -1.691239 -0.583745 0.832714
C 0.196562 1.726253 -0.561432
C 0.297042 -0.741267 2.130121
C 0.636938 0.368805 -1.076365
O -0.275041 2.490016 -1.671070
H -1.849154 -0.346189 -0.143761
H -0.305783 -0.982712 3.050457
H 0.990219 2.330765 -0.051213
H 1.610424 0.530961 -1.669197
H 1.217453 -1.681150 -0.527527
H 0.486420 0.408885 2.158732
H -0.559299 -2.257789 0.919936
H -0.630937 1.638942 0.171546
H 1.361960 -1.169063 2.228377
H -0.159491 -0.998727 -2.416761
H -0.914875 1.903285 -2.222220