21
H12 C6 N2 O1
C 0.625475 -0.071734 -0.737453
C -2.288941 -2.331753 0.347307
C -1.202831 -1.782397 -0.509211
N 0.940490 2.007537 1.550440
C 1.929057 0.418293 -0.077409
C 0.183042 1.366522 -0.933398
C 1.299999 1.767396 0.127407
N -0.329670 -0.787881 0.087719
O -1.065102 -2.087337 -1.696143
H 2.740505 0.418398 -0.830533
H -1.976019 -3.303590 0.674722
H 0.762085 -0.703042 -1.636934
H -0.872359 1.694215 -0.586073
H 0.278185 1.277734 1.811607
H 1.847100 2.653249 -0.177511
H 2.218701 -0.162315 0.833562
H 0.477450 2.910164 1.612654
H 0.360995 1.712630 -1.897509
H -3.179987 -2.430528 -0.236124
H -2.503931 -1.757145 1.239188
H -0.244251 -0.808400 1.033655