21
H12 C6 N2 O1
C -1.551997 -1.657714 -0.202524
C -0.037680 0.289736 -0.323173
O -1.162282 -0.441679 0.337138
C 1.193432 -0.624826 -0.598268
N -0.484903 0.888893 -1.562736
C 0.317806 1.382751 0.717646
C 0.239553 0.914346 2.207710
N 2.011945 -0.637041 -3.033080
C 1.687893 -0.631574 -1.953322
H -0.746988 1.776398 -1.382495
H -1.167316 0.371357 -1.923685
H 1.006803 -1.716531 -0.245914
H 1.326108 1.680808 0.549877
H -0.839759 0.720591 2.503770
H 0.530669 1.751525 2.882512
H -0.826901 -2.469164 0.076754
H -0.275241 2.275253 0.532747
H -2.520062 -1.959535 0.241957
H 0.844103 0.015607 2.484994
H -1.628537 -1.662428 -1.335297
H 2.083372 -0.266733 0.025388