19
H10 C8 O1
C -0.214073 0.836523 -0.121229
C 0.063107 -3.972969 0.947642
C 0.207679 2.234936 0.263224
C 0.481192 2.470753 -1.242157
C 0.625241 -1.618080 -0.127975
C 0.235662 -2.898753 0.485983
C -1.372007 0.011377 0.214409
C -0.057565 -0.486410 0.611901
O 0.192045 1.064007 -1.485402
H 1.116371 2.338183 0.880457
H -1.918658 -0.573870 -0.567731
H -2.075098 0.313109 1.047601
H 1.487684 2.704727 -1.549482
H -0.556744 2.849810 0.721803
H -0.153098 -4.932899 1.399808
H 0.240490 -0.384834 1.681615
H 0.318802 -1.602189 -1.239923
H -0.298641 3.096769 -1.742427
H 1.677628 -1.450214 -0.178135