19
H10 C8 O1
C 0.621595 0.743047 -1.585069
C -0.243846 -0.459869 -1.329660
C 1.844000 -0.203042 -1.617090
C 0.616255 -0.082855 0.638959
C -1.389885 -0.396155 -0.516331
C -1.444599 0.567416 1.989111
O 0.670550 1.178976 -0.168637
C 0.934462 -0.954844 -0.568575
C -0.909935 -0.432805 0.941651
H -1.003003 -1.418851 1.341738
H 1.132198 -2.086318 -0.455406
H 0.395566 1.489905 -2.274755
H -1.221770 1.608131 1.650872
H 2.721946 0.276041 -1.269910
H 1.268243 -0.020197 1.459421
H -1.046237 0.417304 2.987715
H 1.993808 -0.714899 -2.536517
H -2.561737 0.610682 2.112986
H -2.377627 -0.121655 -0.800526