16
H7 C6 N1 O2
C -1.118672 0.731743 -1.457121
O 1.070486 -0.103673 1.329161
C 0.347184 -0.176564 0.113629
O 0.189179 0.786345 -0.726029
C -2.033298 0.363534 -0.298378
N 3.760686 -1.995145 0.629406
C 2.949682 -1.222414 0.592810
C -1.394809 0.073048 0.912605
C 2.057587 -0.136022 0.532354
H -3.090202 0.291497 -0.461557
H 2.402507 0.838826 0.243683
H -1.350977 1.672125 -1.845538
H 0.294591 -1.206999 -0.383808
H -1.681944 -0.804893 1.434294
H -1.088200 -0.044080 -2.198331
H -1.313805 0.932667 1.582814