19
H10 C6 N2 O1
C 0.691272 1.279853 -0.804485
C -0.679444 -0.717036 -1.293573
O 0.600546 2.499669 -0.738126
C 0.945402 -0.250568 1.254542
C 1.602388 0.391482 0.048463
N -1.333887 0.609241 1.036713
N 0.037280 0.507099 -1.715376
C -0.497212 -0.579060 1.249831
C -1.381253 -0.444107 0.057629
H -0.194202 0.897438 -2.628547
H -0.886941 -1.282299 1.938454
H -1.413261 -0.979191 -2.095744
H -2.425364 -0.852439 -0.041242
H 2.031050 -0.381786 -0.686447
H -0.017647 -1.516338 -1.199688
H -2.173651 0.661233 1.595275
H 2.456062 1.015769 0.324746
H 1.533234 -1.193107 1.514466
H 1.105615 0.334133 2.183116