22
H13 C8 N1
C 0.706476 -3.372186 0.066133
C -2.045436 2.167946 0.699301
C 2.638459 -0.592411 -1.448423
C 0.600555 -0.696409 0.100901
C 0.587232 -2.203349 0.108617
C 1.249887 -0.253377 -1.228315
C -0.771155 -0.065299 0.375113
C -0.682482 1.471588 0.668477
N -1.361094 -0.688133 1.510211
H 0.679138 -0.725677 -2.064979
H -0.132456 1.621046 1.548907
H -0.069821 1.984228 -0.110698
H 3.102178 -0.128688 -2.237725
H -1.397611 -0.171881 -0.559321
H 3.098627 -1.313339 -0.948674
H -1.961298 3.239501 0.828571
H -2.167918 -0.256862 1.635694
H 1.272027 -0.359944 0.931958
H 0.776385 -4.393188 0.054322
H -2.597868 2.035967 -0.217543
H 1.158618 0.884457 -1.257792
H -2.682470 1.816047 1.545241