15
H7 C5 N1 O2
O -0.592219 0.461963 -1.655810
C 0.829477 0.347146 -1.571381
C -0.081434 0.652818 0.614360
C -0.912951 -0.608127 0.485718
N -1.259238 -1.697269 0.886283
C -1.219023 0.508357 -0.393052
C 1.208255 0.700209 -0.102023
O -0.681004 -1.983503 2.318533
H -2.137014 1.009357 -0.454097
H -1.105621 -2.852601 2.301986
H 1.218865 -0.619564 -1.886878
H 2.000914 0.066920 0.309985
H -0.172636 1.198908 1.507578
H 1.274445 1.125014 -2.304616
H 1.629155 1.690390 -0.056614