17
H8 C6 O3
C -0.344228 1.031877 -0.218583
C -1.304295 -0.456357 0.782020
O 1.209637 -2.587213 -0.868119
C -0.040418 -1.275933 0.653793
C -0.029009 0.225900 1.028900
O -1.555190 0.241717 -0.460211
C 0.308566 -1.920557 -0.720677
C 0.670969 1.248903 -1.349671
O 0.460068 0.598638 2.245602
H 1.163025 0.291905 -1.511250
H -0.741306 1.960757 0.163777
H -2.196730 -0.679290 1.436893
H 0.189048 -1.898813 1.445774
H 0.133509 1.642532 -2.183506
H -0.415324 -1.711748 -1.566794
H 1.410427 1.941810 -0.978704
H 1.081247 1.345878 2.100784