23
H14 C8 O1
C -0.839878 -1.883216 -0.422949
C 1.047926 0.198205 0.588418
C 1.942523 -0.105647 -0.500783
C -0.152412 2.076675 0.653708
C -0.857777 -0.349864 -0.581784
C -0.066510 0.060032 -1.867177
C -0.374197 -0.163644 2.068785
O 1.339650 0.065082 -1.778814
C -0.101487 0.427470 0.641364
H -1.368265 -2.194751 0.474437
H -1.437131 -2.329778 -1.302006
H -1.139726 2.457324 0.595688
H -0.325440 -0.570113 -2.681533
H 0.340777 2.476308 1.503813
H 0.336130 2.606624 -0.250160
H -1.544552 -0.307618 2.146279
H 0.068380 0.432713 2.745206
H 2.466785 -1.039663 -0.491281
H 2.797499 0.625518 -0.485885
H -0.412646 1.081965 -2.095237
H -0.020335 -1.223763 2.246096
H -1.857368 -0.010871 -0.647620
H 0.158021 -2.328969 -0.558564