13
H4 C4 N2 O3
N -0.005659 2.705648 0.166518
C 0.464912 -0.609451 -0.678834
C 0.519596 0.534426 -0.709829
C -0.144433 1.398773 0.251480
C -0.229293 -1.449553 0.270308
O 1.148288 0.985354 -1.826755
N -0.762195 -0.745610 1.189451
O -0.745106 0.786581 1.283073
O -0.127982 -2.789213 0.118712
H -0.545037 3.142554 0.987549
H 0.431257 -2.859344 -0.709625
H 1.226562 -0.024860 -2.376578
H -1.230910 -1.075319 2.034522