17
H8 C5 N2 O2
C 0.897684 0.740350 1.065115
C -0.051443 -1.151626 -0.118039
C -0.911611 -0.973128 -1.433689
O -1.434808 0.470323 1.238336
C -0.154405 0.129691 0.744420
O -0.345100 0.020750 -2.295579
N 1.955955 0.855343 3.393330
C 1.482144 0.791740 2.328838
N 1.334885 1.376822 -0.039501
H -1.892340 -0.330960 1.425454
H 0.964517 -1.354360 -0.432813
H -0.817077 0.819413 -2.394546
H 1.298228 0.990864 -1.016633
H -0.393532 -1.943852 0.385592
H 0.939861 2.296687 0.335619
H -0.886018 -1.917173 -2.025650
H -1.986947 -0.820906 -1.160304