21
H12 C7 O2
C 0.704943 -1.295284 -0.684711
O -1.696918 -1.681874 -0.301239
C 0.665971 0.183717 -0.652706
C -0.110229 1.962706 1.255088
C -0.243680 -0.631407 1.381419
C -0.381155 -1.738415 0.342978
C 0.309623 0.671904 0.701433
C 0.179363 1.026622 -1.836503
O 1.626677 0.643671 0.253048
H -0.198085 -2.682431 0.734617
H -1.210932 2.056551 1.264489
H 0.384521 -0.950941 2.256729
H -1.271893 -0.471437 1.872744
H 0.269545 2.753190 0.652847
H 0.284920 2.096948 2.263417
H 0.694499 0.762513 -2.728497
H -1.668066 -2.297964 -1.092311
H 0.536982 -1.700645 -1.654611
H 0.304824 2.070304 -1.661645
H -0.916877 0.836052 -2.021344
H 1.735973 -1.613804 -0.345231