21
H12 C8 O1
O -2.903167 0.848034 0.690853
C 2.046504 -0.042205 0.243790
C -0.257343 -0.187844 3.023979
C -1.838943 0.263053 -0.097959
C 0.450629 -1.196341 -1.393220
C 0.702216 -0.122176 -0.394228
C -0.415167 0.492428 0.459717
C -0.378641 0.109015 1.847339
C 0.669619 0.150529 -1.884726
H 2.845328 -0.407951 -0.422719
H -0.352236 1.602875 0.390061
H 2.310949 0.908993 0.589341
H -0.601456 -1.604394 -1.500609
H -0.250208 -0.579294 3.986659
H 2.052508 -0.709715 1.077529
H -0.118487 0.674199 -2.385742
H -2.104272 -0.869353 -0.078921
H 1.580737 0.306559 -2.363171
H -1.949467 0.595728 -1.075327
H -2.747978 1.689999 0.801179
H 1.258850 -1.922169 -1.513846