17
H8 C7 N2
C -0.048203 0.727780 0.011575
C 1.508810 -0.719638 1.345888
N 1.306315 2.853180 0.429266
C 0.629712 1.940852 0.219098
C -0.172087 -1.185063 -0.401617
C -0.085792 -0.085638 -1.383198
N 0.188886 -0.444174 0.808182
C -1.584672 0.674868 -0.077715
C -1.446364 -0.528520 -0.968598
H -2.200135 0.642742 0.832747
H 0.018058 -2.235219 -0.527318
H -2.179419 -1.040394 -1.538828
H 1.664287 -0.048900 2.170801
H 2.282095 -0.439837 0.541168
H 1.644315 -1.717886 1.592764
H -2.007418 1.571184 -0.740693
H 0.481631 0.034635 -2.313518