23
H14 C6 O3
C 1.610347 -0.638438 -2.330436
O 1.056433 0.376224 -3.161220
C -1.248458 0.458728 3.134802
C 0.131618 -0.267496 -0.325089
C 0.060937 -0.113559 1.159003
C 1.511853 -0.373486 -0.898675
O -2.516561 0.389008 1.020434
O -0.529492 0.842540 -0.934726
C -1.179819 0.688862 1.688238
H -0.518565 0.916525 3.722874
H 0.975409 0.352990 1.518854
H 1.151980 -1.591161 -2.593595
H 2.017348 -1.186692 -0.305089
H -0.479023 -1.114722 -0.718999
H 2.691912 -0.684889 -2.643082
H -2.540764 -0.658137 1.426732
H 0.078635 -1.118648 1.566762
H -0.971480 1.787195 1.512116
H -2.246182 0.807791 0.210897
H 2.046473 0.542887 -0.689031
H 0.884645 -0.009690 -4.036328
H -1.676656 -0.491782 3.438333
H -0.310577 1.085940 -1.762761