18
H9 C6 N1 O2
C 0.959403 1.108446 -1.134906
C -0.043732 1.329999 0.642520
N -0.803692 1.959908 1.599770
O 0.726599 1.955078 -0.199375
C -0.920988 -1.135368 1.128018
C 0.633007 -0.172406 -0.861250
O 1.412682 -0.552977 0.313501
C 0.421890 -1.318346 -1.792374
C 0.016270 -0.180623 0.505220
H -0.428160 2.917823 1.790313
H 0.444800 -2.275028 -1.270283
H -0.496461 -1.228825 -2.368228
H -0.799559 -1.173066 2.166624
H -0.774871 -2.149084 0.724478
H 1.381199 1.561787 -2.050491
H 1.239283 -1.289999 -2.537649
H -1.965118 -0.853296 0.883835
H -1.002573 1.495987 2.460285