18
H9 C8 N1
C 0.235202 1.638017 -0.362152
N -1.791844 0.332497 -0.547703
C -1.224225 1.607477 0.122658
C 0.932662 -0.901061 1.017468
C 1.000189 -0.958748 -1.153321
C -0.649692 -0.557772 0.066249
C 0.647864 0.118820 -0.080409
C -1.560388 0.297903 0.840051
C 0.132600 -1.711520 -0.089714
H 2.091614 -1.230234 -1.182705
H 0.299941 1.894247 -1.468859
H 0.807289 2.423454 0.152899
H -1.809165 2.456277 0.146744
H 1.976311 -1.222525 1.148594
H -0.055282 -2.757872 -0.171377
H 0.524122 -0.718913 2.043951
H -2.170528 0.204314 1.643317
H 0.613316 -0.914367 -2.125684