25
H16 C8 O1
C -1.162986 -0.927172 0.476776
C -0.806484 0.556186 0.778206
C 1.274807 -1.299323 -0.368141
C -1.749506 2.268055 2.360821
O 0.609681 0.309865 -2.278576
C -0.250885 -1.682923 -0.522858
C 2.228117 -0.260435 -2.508533
C -1.821032 0.977124 1.812679
C 1.527814 -0.031689 -1.244556
H 2.088606 -1.294688 -2.862280
H -2.194786 -0.929283 0.113649
H -2.493284 2.412634 3.185249
H 2.268390 0.400411 -3.405380
H -1.950585 2.941869 1.604784
H -0.652543 -1.489555 -1.589713
H 3.345047 -0.204964 -2.155383
H 1.838889 0.834867 -0.644485
H -2.605515 0.411645 2.102271
H 1.515027 -1.108252 0.753763
H -0.819482 1.225829 -0.073108
H 0.179617 0.700868 1.231886
H -0.422614 -2.710610 -0.369138
H -0.792163 2.424359 2.824599
H -1.084669 -1.460681 1.377673
H 1.930534 -2.064161 -0.600187