19
H10 C6 O3
C 1.114318 -0.693712 0.298113
C -1.027439 0.969249 0.257321
O 1.513275 -3.035423 0.084745
C -0.100298 0.030396 0.976470
C -0.980057 1.162954 -1.272046
C 0.753544 -2.090965 -0.009019
O 1.683889 -0.210483 -0.876132
C -0.045927 1.546758 1.227298
O -0.409026 -2.440740 -0.536303
H -0.075022 0.786561 -1.730835
H -2.092762 0.857464 0.678896
H -0.576692 -0.554497 1.745489
H -1.011352 2.191748 -1.459358
H -1.846470 0.700931 -1.728980
H 2.141056 -0.986933 -1.281418
H -1.174144 -1.771946 -0.302635
H 1.909147 -0.746458 1.049452
H 0.441419 1.794195 1.867457
H -0.217468 2.490896 1.011496