17
H8 C5 N2 O2
O -0.337872 -3.116694 -0.777970
C -0.745843 -2.669333 0.222172
C -0.261854 -0.176284 -0.009053
C 0.690067 2.109483 0.564102
N -0.824136 -1.356898 0.675242
C -0.384570 1.077502 0.779745
C 0.835094 -0.334473 -2.133657
O 1.399178 0.687806 -2.528907
N 0.123658 -0.113162 -1.119148
H 1.692185 1.784551 0.757380
H -1.344577 1.613780 0.586849
H 0.776937 2.438491 -0.474610
H -0.442737 0.852412 1.893312
H 0.695043 -1.359936 -2.274865
H -1.250894 -3.283732 1.013614
H 0.513492 3.024892 1.217309
H -1.133155 -1.178403 1.608491