22
H13 C7 N1 O1
C -0.313139 -0.817706 -0.701925
C 1.204574 0.727473 -0.680323
C -1.076071 1.650804 -0.541544
C -0.129453 0.552584 -0.006335
O -1.332872 0.185361 1.994714
C 1.043109 -0.505216 -1.411443
C -0.125609 0.644492 1.570155
C -0.424384 -2.083174 0.062503
N 2.080715 -0.442715 -0.308772
H 0.738121 -0.011817 1.886752
H -0.264054 -2.905065 -0.522152
H 1.714575 1.686661 -0.927233
H -2.056963 1.478080 -0.285868
H -1.149444 -0.763834 -1.405102
H 2.945270 -0.337941 -0.770668
H -1.374751 0.117976 2.950523
H 0.341148 -2.175223 0.879451
H -0.790762 2.696603 -0.187928
H 0.096534 1.667016 1.870986
H -1.359440 -2.185445 0.591115
H 1.281166 -0.774621 -2.424777
H -1.048267 1.595705 -1.632119