22
H13 C7 N1 O1
C 0.458067 0.949662 -0.349493
C -2.189367 0.574344 1.167881
N 0.660363 -0.164246 2.952758
C 1.902877 0.395849 -2.174053
C -1.407435 -1.887799 0.773782
C -1.005111 -0.398365 0.857403
O -0.408856 -0.064002 -0.439864
C -0.075026 -0.191668 2.012674
C 1.886591 0.668888 -0.553123
H -2.954719 0.392675 0.376750
H -2.167902 -1.991527 0.001199
H 1.494179 1.554052 -2.471834
H -2.680959 0.270939 2.063384
H 0.050102 1.776763 -0.016098
H 0.914973 0.102405 -2.662427
H 2.507447 1.556474 -0.337343
H 2.145792 -0.161846 0.013019
H -1.841417 -2.197216 1.741423
H 2.232089 -0.843898 -2.096922
H 2.890693 0.552486 -2.660001
H -0.515923 -2.470729 0.567442
H -1.896483 1.576760 1.233455