18
H9 C6 N1 O2
C -0.114116 1.179672 1.102763
C 1.165561 -0.669578 -0.483382
C -0.259165 -0.982154 -1.002113
C -1.016878 0.014537 -1.831814
N -1.321481 0.785330 0.583736
C 0.859461 0.028382 1.823168
O 1.262243 -0.905357 0.932018
O 1.879840 0.600426 2.337833
C -1.396404 -0.252242 -0.337131
H -0.530531 0.963277 -2.087412
H -1.691649 -0.353064 -2.612477
H -0.236026 1.983340 1.867180
H -2.313405 -0.841637 -0.221687
H 0.319409 -0.332157 2.736892
H 1.883583 -1.269933 -1.037049
H 1.466058 0.357092 -0.707826
H -0.406706 -2.045460 -1.274068
H 0.450213 1.739495 0.211352