19
H10 C7 O2
O -1.346861 -1.551423 -2.154171
C -0.079572 -0.465389 -0.499094
C 0.126340 -0.632150 1.080254
C -0.610598 2.221780 -0.974732
C -0.067024 0.845389 1.206737
O 1.011339 -0.746806 -1.332584
C -0.329587 1.070281 -0.180490
C 1.455408 -1.175205 1.487562
C -1.288094 -1.159603 -1.028191
H -2.147182 -1.226420 -0.374279
H -0.672434 3.089810 -0.369210
H 1.646684 -2.223307 1.250351
H 2.310757 -0.610979 0.995600
H 0.130487 2.383750 -1.724095
H 0.585483 -1.076909 -2.042851
H -0.047886 1.493824 2.026476
H 1.567035 -1.090114 2.628725
H -1.599752 2.103730 -1.540367
H -0.644547 -1.250239 1.544370