20
H11 C6 N1 O2
C -0.830232 0.941347 2.266001
C 0.278473 0.849863 -1.291221
C 0.086675 -1.041002 0.558258
O -1.843834 1.903588 0.380446
C -0.502664 -2.189440 -0.104493
O 2.385771 0.870626 -2.554969
N -0.264329 0.294696 -0.021555
C -1.109518 1.127388 0.732696
C 1.736418 0.869710 -1.467582
H 2.359341 0.844786 -0.550245
H 1.275350 -1.129581 0.502438
H 0.470716 2.166132 -0.736864
H 0.063116 1.089386 2.613719
H 0.042165 -0.264058 -2.056268
H -0.115369 -2.300723 -1.146151
H -1.570333 -2.125318 -0.115377
H -1.642286 0.872065 2.804408
H -0.201841 -1.042894 1.626860
H -0.206191 -3.115472 0.429336
H -0.411471 1.378924 -1.869456