19
H11 C6 N1 O1
C -0.648584 -1.224445 0.536862
C -0.071135 0.159237 0.012861
C 1.101500 0.461770 -0.823925
C -0.842019 -1.389220 1.987571
C 0.903537 1.130692 0.529998
O -1.386796 0.575840 -0.330820
C 0.911473 1.209110 -2.106284
N -1.897720 -0.755060 -0.093758
H -2.567053 -0.783402 -0.546605
H 1.740533 0.960108 1.156013
H 1.820142 -0.379659 -0.847532
H -1.331694 -0.552522 2.487000
H 0.240428 2.056176 -1.959273
H -0.060765 -2.045798 0.069496
H 0.220732 -1.417648 2.489483
H -1.314467 -2.338665 2.176966
H 0.556924 2.147053 0.657203
H 0.643888 0.576220 -2.920418
H 1.981099 1.610221 -2.474818