16
H8 C6 N2
N 0.728246 -3.771395 -1.259976
C 0.901821 -0.934190 0.688468
C 0.542061 -2.704469 -1.022220
C -1.078799 0.543984 0.151923
N -0.439364 -0.782382 0.337265
C -0.649950 1.681814 0.933358
C -0.364610 1.682754 -0.538618
C 0.519239 -1.345755 -0.652722
H -2.117965 0.389668 -0.089783
H -1.420005 2.340643 1.273213
H 1.582151 -0.019366 0.727757
H 0.167462 1.539989 1.631847
H 1.104766 -1.750798 1.415343
H 0.676627 1.521818 -0.910266
H -0.926698 2.244726 -1.219008
H 0.775025 -0.637025 -1.466569