19
H10 C7 O2
C 0.124203 0.998074 2.131532
C 1.285540 -1.076551 0.299434
O -1.631372 -0.012628 -1.752323
C 2.043645 -2.009316 0.702279
C -0.522976 0.536879 0.791874
O -1.484515 -0.462805 1.139366
C -0.277047 -0.476255 -1.463963
C -0.546325 0.456619 -2.517010
C 0.466583 -0.018075 -0.237259
H -0.151002 -1.535933 -1.746577
H -0.979350 1.386954 0.417655
H 1.102443 0.792521 -0.500588
H 2.626413 -2.846509 1.037482
H -2.120937 -0.547815 0.455014
H -0.631090 1.385688 2.830925
H -0.249674 1.479644 -2.472503
H 0.910099 1.759483 1.940827
H 0.596680 0.111186 2.557926
H -0.561336 0.078855 -3.614109