16
H7 C5 N1 O3
O -0.126120 -2.618694 -1.131086
C -1.116924 0.686526 0.157580
C 1.157634 -0.008880 1.162403
O 0.323695 -0.019260 2.318558
C 0.069520 0.917823 1.217009
O 0.325963 -1.770427 0.818467
C 0.290651 -1.733504 -0.480119
C -0.568099 0.391697 -1.257856
N 0.690000 -0.489117 -1.078567
H 0.236240 1.936020 1.495412
H 2.100443 0.200920 1.116749
H -1.722242 -0.140807 0.470440
H -0.299201 1.295233 -1.792149
H -1.256476 -0.250646 -1.844267
H 1.637398 0.025458 -1.291688
H -1.742491 1.577646 0.119130