19
H10 C6 N2 O1
C 2.211206 0.273758 2.114625
C -1.914894 -0.108681 -1.454882
C 0.700252 0.314835 0.787299
C -2.364488 -0.817733 -2.694498
N 2.011179 -0.399244 0.751425
C 1.159122 1.319520 1.902344
C -0.730482 -0.710031 -0.701692
N -0.453232 0.092189 0.487986
O -1.926322 -1.599855 -3.333844
H -0.969267 -1.775478 -0.484562
H 2.589664 0.010369 0.090272
H -2.816271 -0.121928 -0.662171
H 1.999184 -0.540379 2.938956
H 3.265078 0.553546 2.209694
H -3.338653 -0.363664 -3.082532
H 1.669048 2.204690 1.524196
H 0.396924 1.466722 2.642254
H 0.204191 -0.752771 -1.357479
H -1.692276 0.954127 -1.677373