17
H8 C5 N4
C 0.046618 -0.076554 -1.089794
N 0.614607 1.560301 1.910131
C 0.876109 0.290436 2.254903
N 0.679391 -1.699534 0.673380
C -1.320044 0.296873 -1.636971
C 0.692944 -0.391728 1.077018
N 0.336101 0.518043 0.215218
C 0.207076 -1.604352 -0.649846
N 0.262439 1.716475 0.608444
H -0.832960 -2.076159 -0.727675
H -1.581086 -0.286226 -2.534586
H 0.805722 0.178789 -1.778363
H -1.368308 1.294038 -1.881117
H 1.173626 -0.018217 3.240131
H -2.101563 0.097494 -0.897825
H 0.833894 -2.163748 -1.340433
H 0.675463 2.364074 2.557381