19
H10 C7 N2
C 0.541365 -0.096625 -0.914219
C -1.374922 0.853672 -0.126853
C 0.063703 -0.525247 1.274163
N -1.114952 0.245389 1.075351
C -0.523205 0.758514 -1.168246
C -0.668788 1.501030 -2.403101
C 0.390256 -1.228673 2.515386
C 0.748530 -0.658557 0.186110
N 1.924591 -0.999936 -0.775993
H -1.802650 0.243155 1.866659
H 1.322820 -0.877791 2.936692
H 2.527946 -0.461285 -1.158530
H 0.226490 1.253656 -3.097459
H 2.169869 -1.755726 -0.343807
H -0.388962 -1.177878 3.261250
H 0.498132 -2.372443 2.315929
H -0.659739 2.552779 -2.290261
H -2.336359 1.469946 -0.188284
H -1.544098 1.276020 -2.964790