20
H11 C7 N1 O1
N -0.558016 -1.023329 -0.286319
C 1.566939 0.696063 -0.017544
O -2.328124 -0.112749 -1.544770
C 0.711160 1.905961 -0.730622
C -1.279809 -0.152819 -1.131970
C -0.280859 0.309075 1.804860
C -0.605802 -2.366937 0.110232
C -0.209870 0.845543 -1.308298
C 0.278562 0.046786 0.298155
H 0.250020 2.548201 0.035776
H 0.390548 0.912726 2.344646
H 2.190181 1.012173 0.682008
H 0.103998 0.668698 -2.412647
H -1.053638 -2.443764 1.073864
H -1.161633 0.950133 1.725208
H 1.276421 2.497025 -1.451821
H -1.275345 -2.884569 -0.643445
H 2.138998 0.071408 -0.819123
H -0.508531 -0.595322 2.310386
H 0.354814 -2.884296 -0.038530