15
H6 C6 O3
O -0.327537 -0.182755 2.729226
C 1.297190 0.314170 -0.190461
C 0.360928 -0.646255 0.589913
O 0.755671 -2.114016 1.871091
C -1.043873 0.811016 -0.468106
O -0.141031 -0.690075 -1.671553
C 0.162156 0.694794 -1.241359
C -0.798992 -0.688668 -0.410052
C 0.183667 -1.015174 1.955439
H 2.182872 -0.094005 -0.573617
H 0.479261 1.342873 -2.074239
H -1.976062 1.042634 -1.088613
H -1.550398 -1.486530 -0.309786
H -1.130488 1.451939 0.429318
H 1.546621 1.260070 0.452787