17
H8 C6 N2 O1
C 0.592742 -0.266634 -1.500232
C 1.697517 -0.630656 0.939606
C 0.551441 -0.552489 0.014334
C -0.711426 0.560105 -1.257705
N -0.761309 1.294175 1.242537
N -2.996037 -1.002923 0.621931
C -1.975589 -0.589687 0.495562
C -0.787452 0.182797 0.222180
O 0.924914 -1.741537 0.574526
H -0.560060 1.653942 -1.380181
H -1.480526 0.260171 -1.850657
H 2.708323 -0.666814 0.522250
H 1.437122 0.242680 -1.928963
H 1.650034 -0.238038 1.963718
H 0.474518 -1.215567 -2.067494
H 0.025734 1.879305 1.182535
H -0.789931 0.831180 2.206084