14
H6 C6 O2
C -0.807162 0.076669 -0.850960
C -0.785478 0.639426 0.591613
C -0.410830 -0.691133 1.219310
O 1.394905 -0.860988 -0.499282
C 0.030225 -1.178239 -0.268332
O 2.614968 1.047697 -0.448687
C 0.227022 1.076362 -0.531435
C 1.579419 0.456640 -0.482208
H 0.437988 -0.708033 1.877470
H -1.500402 1.307778 0.994151
H -1.478617 0.121756 -1.669126
H 0.122966 2.118592 -0.865567
H -1.202740 -1.300538 1.547272
H -0.222283 -2.105989 -0.614261