20
H11 C8 N1
C 0.764730 1.267643 -0.029541
C 0.708640 -0.039605 1.990299
C -0.434441 -1.930090 -1.817156
C 1.112373 -0.125034 0.514798
C -0.550534 -0.383046 -1.683413
C -0.527528 0.905369 1.900663
C -0.170185 0.109733 -0.297742
N -1.219374 0.621976 0.660495
C -0.374033 1.835646 0.788875
H -1.120899 1.111980 2.766419
H -1.540987 0.011514 -1.968983
H 0.172415 0.050855 -2.422216
H 0.486722 -0.964061 2.477034
H 1.826979 -0.752318 0.201457
H 1.368158 1.813257 -0.766025
H -1.064851 -2.403241 -1.060845
H -0.852630 2.788973 0.638310
H 0.607802 -2.216940 -1.654115
H 1.527673 0.512095 2.589889
H -0.720029 -2.214718 -2.828181