18
H9 C7 N1 O1
C 1.209793 3.113841 -0.601953
C -1.743832 -1.836282 -0.431221
C 0.718459 2.154764 -0.027658
C 1.463899 -1.383082 0.399914
O -2.907501 -1.795931 -0.387279
C 0.433442 -0.395448 -0.191184
C -1.373281 0.658963 0.229799
C 0.175648 1.020065 0.526700
N -0.945962 -0.682915 -0.041491
H -2.032146 0.805959 1.080769
H 2.482793 -0.956644 0.295580
H 0.673021 -0.248416 -1.309808
H 1.244802 -1.505719 1.481799
H 1.727869 3.902780 -1.013665
H -1.085904 -2.596628 -0.897398
H 0.360632 0.894701 1.569709
H 1.408914 -2.350547 -0.061940
H -1.810676 1.200523 -0.620658