21
H12 C9
C -0.860075 1.232790 1.506132
C -0.118632 -0.075200 1.632986
C 0.515273 1.034801 -0.685451
C -0.765255 -1.059804 -0.607663
C -0.597198 -1.317443 0.896568
C -0.638858 0.171737 -1.330139
C 0.423679 -0.898597 -1.633313
C 1.531111 -0.069453 -1.137624
C 0.399978 1.094279 0.816766
H -1.567736 -1.625051 1.292326
H -0.898574 1.885505 2.444943
H -1.844188 1.231177 0.993093
H 0.090776 -2.134087 1.105843
H 2.154057 -0.454945 -0.330431
H 1.251711 1.704404 1.236577
H 0.467113 -1.527131 -2.570620
H 0.679364 1.981588 -1.173128
H 2.192764 0.286353 -1.987379
H -1.496064 -1.754243 -1.036684
H -1.289847 0.556833 -2.015385
H 0.370624 -0.263515 2.582581