16
H8 C6 O2
C 0.612018 0.291722 -1.543186
O 0.031389 -0.858232 -2.268545
C 0.192219 1.413515 0.901633
C 0.326950 0.255435 -0.172419
C -0.264486 0.279187 1.786958
C 0.579182 -0.736341 0.982396
O -1.765683 -1.335016 0.149076
C -0.762751 -0.578714 0.538824
H 1.138367 1.911483 1.182128
H -0.557931 0.159283 2.768619
H -0.520181 2.193907 0.679934
H -1.522519 -2.158625 -0.264031
H 1.377572 -1.474455 1.224570
H 0.320242 1.223719 -2.036631
H 1.735190 0.189272 -1.749366
H -0.919576 -0.776151 -2.179968