21
H12 C7 O2
C -1.451210 1.612873 -1.449717
C 1.097579 -3.288574 0.631108
O -1.556922 3.043851 -1.315700
C 0.702166 -1.920013 1.121129
C -0.112654 1.530121 -0.586282
C -0.518322 3.016224 -0.322855
O 0.020427 -1.260866 -1.083126
C 0.241727 -0.932559 0.020090
C 0.103504 0.572000 0.446628
H 1.260583 -4.002384 1.400497
H 0.936139 0.818984 1.102039
H -0.711736 0.524084 1.185200
H 0.758535 1.520909 -1.352711
H 0.245780 3.794652 -0.465136
H 1.569233 -1.540324 1.621540
H 0.187810 -3.734571 -0.002673
H 1.916848 -3.259784 -0.122331
H -1.390038 1.248403 -2.473629
H -0.096395 -1.968911 1.863782
H -0.944926 3.148395 0.690919
H -2.258122 1.077446 -0.908740