21
H12 C7 O2
C -0.126940 0.841068 0.856701
C 0.524735 -0.450522 -0.836852
C 0.816967 1.045037 -0.350595
O 1.936226 -2.273849 -0.832145
C -2.040022 -1.491437 1.543954
C 1.659489 -1.271982 -1.277793
C 0.620111 2.146759 -1.318926
O -1.415030 -1.302041 0.394712
C -0.198729 -0.675149 0.527951
H 0.809930 3.117072 -0.776773
H -1.588037 -2.200737 2.237771
H -1.115259 1.296837 0.695204
H 0.427041 -1.324606 1.180355
H 1.302166 2.103858 -2.110800
H -0.245294 -0.442117 -1.628331
H -3.052316 -2.016407 1.372874
H 2.288243 -0.743101 -2.058655
H 0.195060 1.055039 1.870845
H -2.250390 -0.614330 2.169778
H -0.395360 2.160469 -1.663230
H 1.847425 1.040147 0.003913