21
H12 C8 O1
O 1.560844 -0.816022 -1.278761
C -1.298729 0.258166 0.258963
C 0.685295 1.551106 0.741573
C 0.569580 -1.235521 -0.388557
C 2.239008 -0.987106 0.033719
C 1.046110 -0.969777 0.930828
C 0.167136 0.120277 0.443377
C -2.011904 1.063957 -0.814513
C -2.024292 -0.462883 -0.821186
H 0.856188 2.172589 -0.131165
H 0.993094 -1.348041 1.950251
H -0.022728 2.044387 1.378164
H 3.006808 -0.115987 0.046001
H -2.831856 1.513875 -0.585635
H -1.550504 -0.927218 -1.655619
H 0.149506 -2.282434 -0.543825
H 1.646631 1.500512 1.311377
H -1.320586 1.535331 -1.539082
H 2.890802 -1.915708 0.016025
H -1.782778 0.291685 1.239719
H -2.967635 -0.991164 -0.591614