18
H9 C5 N1 O3
C -1.505589 -0.287616 -2.964172
C 1.878116 0.028584 1.170252
N 0.128967 1.141209 2.468963
C -0.523792 -0.308280 0.530860
O -1.019683 -1.158164 1.174079
C 0.518246 0.677366 1.100237
O 2.731834 0.712873 2.048001
C -1.409162 -0.727302 -1.516883
O -0.563853 -0.062909 -0.836441
H 0.601285 1.663919 0.447729
H -1.947612 -1.480528 -1.044734
H -0.298064 0.411643 2.905296
H -2.237220 -0.986867 -3.422485
H 2.151502 1.080334 2.742794
H 1.813565 -1.008788 1.488298
H -0.636095 -0.361650 -3.406347
H 2.215439 -0.059203 0.116511
H -1.897881 0.725371 -3.001969