19
H10 C8 O1
C -0.490369 0.134918 2.218127
O -0.753213 -1.076438 1.640888
C 0.738721 -0.369349 -0.686104
C 0.494106 -1.558468 -3.004442
C -0.192644 1.202817 1.166499
C 0.668180 -0.868953 -1.734533
C 0.930010 0.194377 0.618741
C 0.550909 -0.685135 1.797931
C -1.326450 1.632245 0.215741
H -0.886611 2.255147 -0.556846
H 0.234851 2.049716 1.658709
H -2.125700 2.103317 0.748324
H 1.281154 -1.392899 2.331434
H -1.715593 0.717485 -0.294269
H 1.048652 -0.960409 -3.818871
H -0.548335 -1.778179 -3.290760
H -0.835395 0.216013 3.298366
H 1.914773 0.695803 0.696493
H 1.013018 -2.511988 -3.005436