21
H12 C8 O1
C 0.471706 -0.877296 -1.642717
O -0.220077 2.156834 1.318612
C -1.611444 -1.852199 -0.347183
C 1.175532 1.706549 1.529751
C 1.038878 0.480615 -0.977531
C 1.426238 0.597820 0.547625
C -1.009794 1.166756 0.586823
C 0.047863 0.217027 0.206803
C -0.192640 -1.269888 -0.330975
H -1.546032 1.694929 -0.152848
H 1.432462 1.257882 -1.583192
H -1.560920 -2.781006 -0.799152
H -0.288740 -0.644285 -2.398905
H 0.452539 -1.962185 0.233539
H 1.238373 1.439947 2.570035
H 2.192336 -0.030659 0.712942
H -2.277777 -1.198789 -0.895556
H 1.796153 2.645432 1.384730
H -2.003774 -1.946453 0.715135
H 1.137532 -1.567794 -2.031200
H -1.698405 0.766769 1.353267