23
H14 C8 O1
C 2.098529 0.604214 0.276909
C -1.200283 0.098263 0.215552
C 0.472866 -0.694681 -0.324398
C -1.926942 -0.274921 -1.056658
C -3.383265 0.161489 -1.147838
C 3.368312 -0.437026 0.207379
C 1.058537 0.595693 1.504961
C -0.060771 -0.313651 0.872114
O 1.352531 0.223974 -0.881927
H 0.746398 1.659298 1.599665
H -1.859685 0.829342 0.859800
H -1.874440 -1.377021 -1.223325
H -3.958418 -0.201191 -0.208498
H 3.974872 -0.364605 1.068804
H 1.417036 0.218099 2.386854
H 3.942474 -0.157016 -0.705172
H -0.364716 -1.136108 1.609964
H -1.343627 0.176444 -1.870534
H 2.623326 1.555635 0.284137
H 0.410952 -1.687133 -0.807462
H -3.844158 -0.181799 -1.929080
H -3.420262 1.242332 -1.127926
H 2.955185 -1.410944 -0.005519