15
H7 C5 N1 O2
C -2.073264 1.086991 1.684208
C 2.041824 -0.711933 0.269570
C -0.085303 0.439116 0.093068
N 0.919661 -0.189526 0.863762
C -1.227878 0.807258 1.022047
O 2.636992 -1.630635 0.714210
C -0.477787 -0.355915 -1.116457
O 0.545937 -0.269997 -2.075786
H -0.703460 -1.428417 -0.762413
H 0.311198 1.401061 -0.316406
H 2.337971 -0.089123 -0.640750
H -1.480594 -0.015755 -1.528430
H -2.875625 1.398425 2.347038
H 0.086069 -0.774901 -2.931688
H 0.652314 -0.722148 1.716006