18
H9 C6 N1 O2
O 1.082873 1.903991 1.158640
C -1.232847 -0.047331 1.393878
C 1.754921 0.611839 -0.972275
N -0.818585 -1.957432 -1.143882
C 1.167533 -0.515172 -1.592682
C 0.864156 0.957176 0.207956
C -0.206773 0.024443 0.258769
C 0.037018 -0.872553 -0.818097
O -1.419269 1.253682 2.214936
H -1.546454 -1.101974 1.427439
H -0.711159 -0.285114 2.392825
H -2.258269 0.266243 0.904208
H -1.200792 2.013056 1.587034
H -1.756615 -1.851585 -0.905438
H 2.709266 1.037237 -1.181902
H 1.513341 -1.019480 -2.489960
H -0.617969 -2.327999 -2.043625
H 1.449206 2.666016 0.766245