18
H9 C6 N1 O2
O 1.009866 -1.159632 0.173469
C -0.753137 1.043275 -0.723628
C 0.533039 0.258699 -0.597508
N 2.489121 0.943992 0.660776
C 1.829735 0.427686 -0.413224
O -1.505643 -0.848520 1.931504
C -2.272732 -0.708255 0.632080
C -0.037586 -1.140383 -0.745343
C -1.135430 -0.282816 -0.216502
H 1.898643 1.728161 1.173936
H -2.729992 -1.655503 0.481120
H -0.189988 -1.917820 -1.456480
H -0.941754 1.874420 -0.064990
H 3.465483 1.239522 0.622967
H -2.997602 0.014127 0.678932
H -0.391804 -1.271481 1.687592
H -1.134291 1.284171 -1.756065
H 2.429830 0.145794 -1.324889