20
H11 C6 N1 O2
C -0.458246 -1.847875 -0.046998
C 2.072398 -1.740137 -0.573026
C 0.887167 0.319724 -0.628260
C 0.608833 0.292163 0.675988
N 0.758993 -1.004627 -0.176466
O 1.154164 0.866162 -1.668205
C -0.460756 1.240263 0.977378
C -1.371654 1.968342 0.129693
O -2.659337 2.116689 0.831315
H -0.876785 -1.927027 0.957091
H -0.372076 -2.863726 -0.507939
H -0.895706 2.974986 -0.123689
H -1.455896 1.476642 -0.845262
H -3.182859 2.655207 0.195777
H 2.180711 -2.636909 0.146647
H 2.879772 -1.100908 -0.499950
H 1.258170 0.277961 1.478217
H -1.229212 -1.369317 -0.669184
H 1.912262 -2.178206 -1.601833
H -0.616473 1.427985 2.055174