16
H7 C6 N3
N 0.627632 -1.650596 2.192977
C 1.014106 -0.337276 -2.313351
C -0.954311 0.308336 1.936609
N -1.110854 0.973183 0.880567
C -0.006348 -0.766449 1.412440
C 0.053794 -0.339285 0.139167
C 0.198255 0.109740 -1.139569
C -1.094069 1.665024 -0.252772
N -0.509390 1.355135 -1.348789
H 0.085888 -2.285977 2.764472
H 1.474405 -2.049559 1.731029
H 2.118928 -0.166330 -2.102050
H -1.861685 2.541162 -0.241708
H 0.930104 -1.431736 -2.455120
H -1.341084 0.409629 2.939133
H 0.740630 0.227399 -3.194628