18
H9 C6 N3
N 0.142939 -1.358550 1.341111
C -0.040908 1.062976 0.535173
C 0.701236 -0.555483 -0.982130
C 0.594812 0.689049 -1.686804
N 0.928121 0.966913 -3.005773
C 0.170366 -0.368118 0.334571
C 0.187298 1.678670 -0.750266
C -1.244789 -1.692954 1.688057
N -0.431154 1.648036 1.579714
H -1.206858 -2.388612 2.554211
H 1.246999 0.148616 -3.546698
H 1.014776 -1.455411 -1.490817
H -0.264650 1.102910 2.496931
H -1.686625 -2.311929 0.785493
H 1.211479 1.840312 -3.331300
H -1.953324 -0.867696 1.857534
H 0.728505 -1.039829 2.119787
H 0.075638 2.743817 -0.930341