19
H11 C6 N1 O1
C 1.414084 -0.136837 1.761806
C -1.665905 0.557356 -0.347942
C 1.564843 -0.377272 -0.726141
C -1.440336 -0.867244 -0.052965
C 0.792472 0.278056 0.433275
O -0.566494 0.819934 -2.550942
C -1.546320 0.949845 -1.710855
N -0.657130 0.117924 0.551569
H 1.023296 -0.194976 -1.690820
H 0.867819 1.384176 0.357452
H -2.415233 1.589719 -2.038118
H 2.562482 0.060388 -0.708969
H 1.553460 -1.422004 -0.620901
H 2.423232 -0.132764 1.791161
H 1.018059 0.383552 2.655506
H -2.478383 1.039149 0.158180
H -2.208662 -1.371971 0.798966
H -0.908101 -1.548562 -0.792308
H 1.120132 -1.165943 1.980446