18
H10 C7 O1
C 0.330261 -0.352345 1.993957
C -0.895104 -0.879109 -0.610574
C 0.361450 -1.354543 -1.089258
C -0.349783 0.530223 -0.333369
C -0.710766 -0.358372 0.854171
C -0.645613 1.985175 -0.473666
C 0.978496 -0.111011 -1.033156
O 0.858710 -2.505758 -1.254478
H 1.920697 0.273194 -1.282012
H -1.686434 -0.564749 1.220644
H -0.740921 2.300666 -1.482271
H -0.071186 0.338722 2.721227
H 1.246539 0.049297 1.661160
H -1.922317 -1.122943 -0.905532
H 1.533917 -2.452975 -2.007355
H 0.049190 2.638302 0.035057
H -1.666619 2.219388 -0.020222
H 0.430346 -1.373164 2.446942