15
H6 C5 N2 O2
N -0.327772 0.497612 -2.348449
C 0.674383 0.482344 1.155336
O 1.511315 1.101774 2.996867
C -0.877990 -1.012197 -0.566617
C -0.258592 0.077992 -1.067566
C -0.803600 -1.336916 0.864875
C 0.038215 -0.572681 1.655511
O 1.483888 1.441625 1.764152
N 0.468950 0.880684 -0.163628
H -1.270179 -2.252155 1.235161
H -1.357074 -1.651468 -1.340239
H 0.952212 1.687299 -0.453271
H -0.700699 -0.080962 -3.015212
H 0.167446 -0.761926 2.690809
H 0.506220 1.088487 -2.620701