21
H12 C8 O1
C 1.108254 -0.827391 0.797170
C 1.065610 1.001135 -1.704441
C 0.536950 1.824541 -1.206752
C 0.020434 -0.589567 -0.156051
C -1.091628 0.386125 0.334180
C -1.931694 -0.481041 1.244395
O -3.320096 0.006383 0.936568
C 2.203981 -0.715919 -0.055610
C 1.147302 -0.409038 -1.205793
H 1.012346 -1.030258 1.870274
H -3.857698 -0.467733 1.647796
H -0.573988 -1.512947 -0.544762
H -0.559083 1.248780 0.863670
H 2.838280 -1.585568 -0.165082
H 2.919965 0.280782 0.153297
H -1.593979 -0.147120 2.237768
H -1.928821 -1.548016 1.025178
H 1.118519 -1.243848 -2.002729
H 0.181216 2.651880 -0.936724
H 1.452340 1.405379 -2.746990
H -1.675337 0.940578 -0.449461