15
H6 C6 N2 O1
N -0.908504 0.817330 -2.361942
C 0.798607 -1.378817 0.621440
C 0.656714 0.935016 0.553525
C -0.694707 0.315510 1.209647
N -0.574880 -1.022716 0.788517
C 1.548885 -0.060278 0.392570
C -0.622256 0.867175 -1.122929
C -1.301202 0.001828 -0.081110
O 0.211009 1.722023 -0.535296
H 1.168133 -1.906018 1.535141
H 0.937864 -2.038746 -0.265902
H 2.555388 0.138064 0.051659
H -0.488967 1.724276 -2.708120
H -2.276245 -0.243344 -0.232378
H -1.137031 0.647249 2.121759