19
H10 C5 N2 O2
O 0.418636 2.024872 1.455390
C 0.891823 0.197568 -0.677895
C -1.494188 -0.752638 -0.110205
N 1.356443 -2.983164 0.403676
C -0.682608 1.454295 0.981980
O 1.864752 -0.806654 -0.497402
C -0.306133 0.080229 0.450598
C 1.591889 -1.991871 -0.066970
N 0.516626 0.057631 -2.079719
H -1.041479 2.067389 0.189598
H 1.370589 -0.011069 -2.647828
H 0.524921 1.786351 2.439701
H 1.356102 1.114304 -0.541479
H -2.251448 -0.797734 0.717444
H -1.254989 -1.716859 -0.438527
H -0.189044 -0.565017 -2.291335
H -1.529148 1.297581 1.723346
H 0.292751 -0.482484 1.194052
H -1.921495 -0.174738 -0.961242