19
H10 C7 O2
C -0.732802 -0.287783 -0.688429
C -0.007695 0.538802 1.708504
O -2.188407 -0.177612 -0.499831
C 0.360402 -0.083160 0.414302
C -0.199872 -1.556472 0.006147
C 1.714889 0.248093 -0.342647
C 1.018468 0.719198 -1.641700
C -0.226804 0.531429 -1.798172
O -1.398761 0.787734 1.917237
H 2.189561 0.977782 0.170651
H 1.671226 1.238234 -2.461941
H -0.795908 -1.982331 0.836577
H 0.439379 1.553149 1.717684
H -2.374424 0.080554 0.089040
H -1.766109 -0.022265 1.988047
H 0.325430 -2.183856 -0.583298
H 2.367795 -0.649286 -0.475138
H 0.403434 -0.043410 2.597575
H -0.787014 0.839552 -2.604789