24
H16 C7 O1
C 2.146144 1.479490 0.080750
C -1.255189 -0.669677 -2.122103
C -1.450248 0.242499 0.814628
C -0.095622 -0.227939 0.229535
C 0.053253 -1.667791 0.670124
C 1.268293 0.419911 0.846946
O 0.947604 0.949947 2.149287
C -0.037161 -0.076967 -1.313782
H 1.939759 -0.406640 1.060953
H -1.154475 -0.324347 -3.119138
H -1.284487 0.561310 1.827630
H 0.397788 1.747982 1.998208
H -1.817260 1.195934 0.278413
H -0.074615 -1.793547 1.757902
H -0.004011 1.044511 -1.496088
H -2.210191 -0.372567 0.730567
H -0.763959 -2.326733 0.205290
H -1.221919 -1.719521 -1.992602
H -2.144456 -0.216488 -1.703193
H 1.460813 2.366722 -0.103695
H 0.906907 -0.481507 -1.704365
H 2.915957 1.861861 0.738881
H 2.524758 1.128754 -0.847032
H 0.917673 -2.171802 0.304888