10
H1 C4 N3 O2
O -1.199633 -1.078480 -1.900548
C -0.633849 -0.076560 -1.321456
O 0.361864 -1.200229 1.765291
N -0.370676 -1.476273 0.498607
N 0.497448 0.623164 0.548503
C -0.146009 -0.431132 0.023926
C 0.853349 0.059743 1.675551
C -0.621701 1.148050 -1.926518
N -0.632628 2.156255 -2.570976
H 1.354163 0.416623 2.517494