19
H10 C6 O3
C 0.076116 -3.057325 -0.061349
C 0.572273 -1.917383 0.757849
C -0.332495 2.065995 -0.123653
O -0.916138 -2.895567 -0.712779
C -0.186791 0.543303 0.144589
O 2.104372 -0.056203 0.073785
C 0.741397 -0.512061 -0.007450
C -1.436942 2.625320 -0.948766
O 0.161225 2.802471 0.797965
H 1.504824 -2.147998 1.249410
H -0.174934 0.619553 -1.528948
H -0.589984 0.554995 1.304059
H 0.690231 -4.037992 0.078928
H -0.114122 -1.718799 1.630517
H -2.335055 2.077490 -0.777830
H 2.202856 0.315227 1.036014
H 0.695937 -0.930131 -1.062182
H -1.525061 3.753206 -0.552025
H -1.168042 2.748587 -2.043409