15
H6 C5 N2 O2
C 0.866937 0.658210 -0.012966
O -0.927128 -1.458552 -0.722243
C -1.634129 -2.218695 0.058777
O -2.090508 -3.272293 -0.163272
C -0.567903 1.982451 -0.662594
C -1.169326 0.715982 -0.734977
N -0.222143 -0.224094 -0.316397
C 2.201897 0.142060 0.594101
N 0.650743 1.918052 -0.218638
H -2.142116 0.460107 -1.035498
H 2.458816 -0.712978 -0.006439
H -1.670466 -1.786774 1.167508
H -0.956631 2.951126 -0.976951
H 2.932696 0.964875 0.474620
H 2.087420 -0.182117 1.638630