21
H12 C6 O3
C -0.161875 0.208813 -0.932816
O 1.956860 -0.340832 1.739398
C 0.133138 0.849469 0.440568
C -1.486361 -0.391040 -1.549152
C 1.439061 0.035848 0.514116
C 0.779635 -1.107381 -0.394802
O 0.379321 0.958698 -1.930200
C -0.989332 0.649573 1.543975
O 0.057908 -1.958832 0.390495
H -1.194803 -0.953497 -2.475124
H -1.977102 -1.120404 -0.883357
H 0.174374 -2.841979 -0.007112
H -0.643803 0.967366 2.510200
H -2.195450 0.496090 -1.789940
H 1.418569 -1.536061 -1.165888
H -1.872181 1.233196 1.221424
H 2.687614 0.547945 2.027934
H -1.223033 -0.427294 1.626658
H 2.227454 0.529445 -0.130914
H -0.122581 1.824813 -1.616048
H 0.380540 1.944695 0.588251