19
H10 C8 O1
C -0.897422 -1.505513 -1.351536
C 1.452417 0.065861 0.978864
C 0.329983 0.167792 0.006526
C -1.927468 -0.942821 -0.355975
C -3.217958 -0.959168 -0.362800
C -0.981991 -0.324533 0.597449
C 0.206956 1.636377 -0.550517
O 1.590724 1.329006 1.720080
C 0.273051 -0.917312 -1.110212
H 1.161044 -1.052501 -1.789250
H 2.434190 1.185827 2.325424
H -0.608065 1.660520 -1.294562
H 1.226165 -0.767000 1.683495
H 2.370778 -0.111674 0.487119
H 1.142215 1.927491 -1.075749
H -1.143940 -2.253219 -2.105856
H -1.211032 -0.047977 1.596525
H -4.194456 -1.041605 -0.282548
H 0.006937 2.324598 0.182528