17
H8 C7 O2
C -0.932811 -1.362277 0.220864
C -0.735483 0.430808 0.926129
C -0.899521 0.023090 -0.565883
C -0.002917 -0.895719 1.231941
C 0.676528 0.580653 1.194778
O 2.433774 2.072113 0.362961
C 0.251787 0.081601 -1.510516
C 1.493211 1.289101 0.185078
O 1.168047 1.097088 -1.168072
H -1.903463 -1.690033 0.671042
H -1.421576 0.935730 1.552357
H 0.746717 -0.856602 -1.607189
H 1.003096 0.832884 2.267342
H -0.654377 -2.271906 -0.510630
H -1.741484 0.508050 -1.048075
H -0.114207 0.333039 -2.446979
H 0.339726 -1.480619 2.037217