19
H10 C6 N2 O1
C 0.456364 -0.737347 -0.251469
C -0.737552 1.301847 0.362290
C -0.669212 -0.374241 1.743707
C -0.018437 1.941713 -0.884994
C 0.569840 -2.216981 0.085050
N -1.139688 -0.752365 2.721032
O 0.768310 1.148296 -1.877388
N -0.132010 0.041396 0.622711
C 0.810244 -0.231306 -1.487625
H -0.326537 -2.677939 0.412728
H -0.747699 1.952581 1.279438
H 1.313681 -2.284597 1.097719
H -0.051353 3.040417 -0.892305
H -0.890366 -1.661000 2.872370
H 1.308700 -0.821196 -2.295738
H -1.817239 1.147847 0.142208
H -1.022523 1.959084 -1.678792
H 1.107023 2.228178 -0.156859
H 1.013942 -2.765688 -0.650986