20
H11 C7 N1 O1
C -1.055717 -0.110686 0.101818
C -2.397646 0.515886 -0.177460
C 0.991854 0.654125 0.153118
C 0.075053 0.060382 -0.890023
C -0.153618 0.593102 1.185612
N 2.027792 -0.475254 -0.073119
O 1.721207 1.832106 0.125742
C 1.057320 -1.009837 -1.207825
C 1.388397 -1.865810 -0.067314
H -0.168007 0.768684 -1.780698
H -0.476041 1.683116 1.361915
H -2.305870 1.624130 -0.434713
H -2.839756 0.017169 -1.045876
H 0.716274 -2.038538 0.733230
H 0.075275 0.206767 2.163745
H 2.170645 -2.647531 -0.115926
H 1.448630 -1.237099 -2.190517
H -1.263051 -1.160927 0.406393
H 2.054690 2.034238 1.003701
H -3.067430 0.555959 0.748180