25
H16 C9
C -0.647817 0.453894 -1.507485
C -1.011968 -0.923047 -2.099358
C -0.787263 -1.909062 -0.881188
C 1.126821 -0.157818 2.158846
C -1.253130 -1.110036 0.263601
C 0.698412 0.656901 0.843894
C -0.245873 -0.036368 -0.139425
C 0.307080 2.180879 1.042117
C 1.788787 0.531743 -0.100496
H -1.368358 -2.799629 -1.013612
H -0.661105 2.225512 1.440377
H 0.991531 2.794755 1.596743
H 2.510107 -0.279392 -0.032230
H -0.415752 -1.191864 -2.934289
H 0.092259 2.683843 -0.013972
H -2.338664 -0.814336 0.236460
H 0.035658 1.061040 -2.076052
H 0.237901 -2.217531 -0.694087
H -2.043789 -0.937833 -2.441234
H -1.121911 -1.436327 1.310647
H 1.922181 -0.892418 1.936044
H 1.959995 1.293476 -0.864901
H -1.510895 1.136777 -1.376706
H 1.465945 0.484881 2.930557
H 0.269854 -0.798032 2.415718