17
H8 C7 O2
C 1.025485 0.861719 1.163846
C 0.182679 -0.171200 0.518735
O -0.761150 -1.052792 1.273739
C -0.979123 -1.369586 -0.185569
C -1.112060 0.175885 -0.387929
C -0.776337 1.465990 -2.659998
C -0.963689 0.787353 -1.669084
C 0.529895 -1.381886 -0.274528
O 1.754038 0.467398 2.254039
H 0.452739 1.778519 1.447618
H 1.736463 1.234892 0.378882
H 0.991668 -1.197721 -1.223653
H 1.176891 0.200093 2.918272
H -1.987872 0.549908 0.149000
H -0.644003 1.975258 -3.547608
H 1.053035 -2.193514 0.303620
H -1.678639 -2.130360 -0.459363