21
H12 C8 O1
C 0.602519 -0.625116 -1.131239
C -0.539449 -1.549100 1.075509
C 1.504291 1.301498 -0.212258
O 1.290193 0.545086 -1.413090
C -0.751916 1.500273 0.999402
C -0.786828 -0.669781 -1.902387
C 0.477162 -0.751432 0.455287
C 0.593781 0.745250 0.898988
C -1.371393 -2.237828 1.618248
H -1.384970 0.207072 -1.599808
H -1.340409 -1.554105 -1.671001
H -2.115739 -2.917606 1.973656
H 2.583675 1.182021 0.076583
H 1.465513 -1.195815 0.726049
H 1.112837 -1.533925 -1.543510
H -1.347384 1.036655 1.777661
H -0.589303 -0.606032 -2.963127
H 1.073427 0.846848 1.910686
H -1.301400 1.458799 0.041522
H -0.559892 2.509429 1.292326
H 1.385260 2.307804 -0.409476