21
H12 C8 O1
C 0.840716 0.402789 -0.863127
C -0.056139 1.729496 1.386163
C -0.453873 -0.332584 -1.251438
C 1.749585 0.222533 0.253075
C -0.247174 -1.834700 -1.019297
C -0.874642 -1.836238 0.341976
O -1.171927 -2.994320 -0.031361
C 0.888429 1.503301 0.179773
C -1.670803 -0.564337 -0.354836
H 2.799002 0.296384 0.021016
H 1.343811 2.379238 -0.163631
H -0.793095 2.504924 1.160706
H 0.567673 2.196135 2.226539
H 1.525074 -0.422372 1.060326
H -0.490374 0.874307 1.769407
H -0.399681 -1.654257 1.284095
H -2.014668 0.169766 0.389788
H 0.485660 -2.391297 -1.536492
H -2.567263 -0.832398 -0.881122
H -0.766170 -0.082261 -2.225441
H 1.305882 0.665881 -1.746112