19
H10 C6 N2 O1
C -0.161245 -0.579926 0.211146
C -2.117958 0.379244 -0.634000
C 0.395288 0.735529 0.160097
C -0.593204 1.926809 0.252664
N 0.601561 0.275297 -1.093233
C 0.023670 -1.450276 1.483766
C 1.699485 -0.642779 -1.283852
N -1.895162 1.519447 -0.293873
O -1.344277 -0.811164 -0.392406
H -0.076693 -2.502785 1.193123
H 2.328586 -0.897601 -0.492186
H 1.313021 -1.608550 -1.712679
H -0.806010 -1.217448 2.243776
H 2.253572 -0.100579 -2.032575
H 1.383340 1.016613 0.661303
H -0.764113 2.233542 1.229183
H 0.970162 -1.214433 1.921485
H -2.991077 0.112470 -1.147328
H -0.218958 2.826608 -0.274422