18
H9 C5 N1 O3
C 1.589775 0.159031 0.234692
C 1.282581 -0.516518 1.535009
O 2.040873 -1.656321 1.857620
C 0.339693 -0.500384 0.178444
C -1.292274 0.971212 -1.338359
O -2.670704 0.939847 -1.503003
O 1.750683 1.572254 0.156947
C -0.755195 -0.353353 -0.929821
N -0.921040 -0.716149 0.457992
H -1.281399 -1.724682 0.504882
H -0.898750 -1.138475 -1.605436
H 0.992424 0.090943 2.377544
H 1.366005 -2.335125 1.541406
H -0.850929 1.212346 -2.308666
H -3.057613 0.695933 -0.635502
H 0.942797 1.887771 0.519730
H 2.395411 -0.264345 -0.377325
H -0.972396 1.675994 -0.666151