20
H11 C7 N1 O1
N 1.241858 -0.144296 -0.996547
C -1.762021 -0.165935 1.247691
O -0.665225 1.297454 -0.610020
C -0.544230 0.181585 0.324306
C -0.073454 -0.660007 -0.891707
C 0.190148 0.606784 1.595788
C 0.088357 0.674979 -1.541480
C -1.130530 0.813883 2.301230
C 1.972473 -0.931667 -2.055239
H -1.781406 -1.207367 1.480793
H 2.761084 -0.371008 -2.467817
H -1.506685 1.807896 2.325804
H 0.791694 -0.186201 2.075217
H 0.132382 0.999703 -2.573668
H 1.289006 -1.271165 -2.911963
H -2.735871 0.153870 0.808946
H -1.151076 0.375715 3.367832
H -0.451413 -1.634172 -1.265770
H 2.460872 -1.886836 -1.689516
H 0.874012 1.546763 1.476141