17
H8 C7 N1 F1
C 1.359165 1.004702 -0.324110
N -1.113454 0.730008 0.135855
C 0.621334 0.659364 -1.641358
C 0.154589 0.992025 0.775985
C -1.123348 -1.449632 0.882502
C -0.466964 -1.407008 -0.525651
F 0.364728 -2.368938 -0.896489
C -0.900691 -0.020419 1.271060
C -0.425647 -0.165621 -0.915672
H -0.615194 -2.271881 1.459533
H 1.780686 1.999957 -0.356846
H 1.246277 0.047489 -2.316984
H -1.304238 0.278467 2.245502
H 2.124979 0.288207 -0.042079
H -2.179842 -1.651981 0.954782
H 0.280868 1.864725 1.407970
H 0.196732 1.470582 -2.113975