19
H10 C7 O2
C -1.487982 1.601596 -0.628867
O -1.007351 -1.605850 -1.023355
C 0.046722 -2.575765 0.997832
C -0.255765 -1.447474 0.002788
C 1.596715 0.081851 -0.812496
C -0.089363 1.132194 -0.343346
C 0.513329 -0.155748 0.308098
O 0.912236 1.236585 -1.282948
C -0.622082 2.415713 0.352873
H 2.593833 0.215268 -0.397329
H 0.800102 -0.019315 1.244277
H -2.297149 0.876991 -0.200869
H -0.846150 2.201845 1.381977
H 1.651942 -0.706872 -1.648241
H -1.719637 1.994110 -1.635792
H -0.466782 -3.479281 0.688017
H -0.264115 3.333021 -0.061245
H -0.220244 -2.321904 1.994202
H 1.161682 -2.776974 1.064473