16
H8 C5 N2 O1
O -0.721486 -2.761546 0.565519
C -1.088055 -1.720370 -0.096337
C 1.151447 -0.465582 0.431611
C 0.184322 1.700768 -0.278210
N -2.194217 -1.601978 -0.850319
C -0.239542 -0.561618 -0.198845
C 1.226723 1.034198 0.725485
N -0.689654 0.571849 -0.626395
H -2.781424 -2.493644 -0.796203
H 1.929416 -0.680496 -0.454958
H 0.918445 1.251790 1.745848
H 0.660975 2.105642 -1.160808
H -0.330846 2.475450 0.159022
H 2.224015 1.498125 0.597349
H -1.576588 0.731220 -0.967363
H 1.326512 -1.083810 1.204621