13
H5 C3 N5
C 0.840642 1.259647 -0.456776
N -1.372322 1.359381 -0.621849
C 0.768348 -0.133332 0.117154
C -0.510583 -0.634455 0.283386
N -0.671939 -1.803113 0.799388
N -1.637468 0.125996 -0.072814
N 1.829173 -0.807756 0.490490
N -0.196008 1.887019 -0.837629
H 2.706733 -0.333561 0.259294
H 0.193170 -2.350998 0.786157
H 1.827280 1.729819 -0.619646
H -1.572572 -2.255394 0.685487
H -2.204445 1.956760 -0.812636