18
H9 C6 N1 O2
C -0.838533 0.453819 1.377008
C 2.255970 -1.153036 -0.417359
N 2.801498 -1.949242 -0.926583
O -1.837158 0.023049 0.517755
C 1.445904 0.008957 0.163091
C -0.277438 0.030022 -1.466687
O 0.785271 0.732172 -0.922892
C -1.667706 0.467949 -0.847523
C 0.427323 -0.433857 1.253531
H 1.006165 -0.323011 2.197084
H -1.280323 0.368210 2.387380
H 0.218259 -1.451129 1.167724
H -2.426445 0.072205 -1.374634
H -1.728449 1.562927 -0.920507
H -0.196410 -1.006337 -1.481355
H -0.573845 1.552513 1.298980
H 2.264627 0.632547 0.576409
H -0.378719 0.412227 -2.581431