19
H10 C7 N2
C -1.550234 0.606754 0.765946
C -1.611877 -0.898368 0.493614
C 1.077926 -1.281507 1.404523
C -0.498268 -0.054584 -0.121783
C 0.915980 -0.092747 0.441084
N 1.325284 -2.041045 2.121862
C 2.133744 0.252177 -0.398493
N 1.640735 1.108408 0.747876
C -0.612003 0.163323 -1.577212
H -1.657123 0.296617 -1.876620
H -0.120337 1.170735 -1.877437
H -2.359457 -1.268528 -0.174992
H -1.329559 -1.577280 1.293023
H 1.162207 1.859013 0.362041
H -1.256584 0.882489 1.790912
H -0.094007 -0.604777 -2.198959
H -2.279913 1.241785 0.297832
H 2.050696 0.513639 -1.360835
H 3.062826 -0.276067 -0.132358