16
H8 C6 N2
N -2.024430 -0.436556 -3.112793
C -1.497594 0.270299 -0.213107
C 1.698921 0.245749 1.505603
C 0.616616 -0.534793 -0.505654
N 0.558158 -0.224691 0.798352
C -1.019812 -0.620282 -2.494162
C -0.805225 0.490459 1.088592
C -0.661053 -0.282193 -1.145842
H -1.172627 -0.003607 1.924018
H 2.603616 -0.342431 1.241608
H -0.125304 -1.101189 -3.066181
H -2.544978 0.563485 -0.330351
H -0.648956 1.451139 1.359888
H 1.503678 -0.969082 -0.951506
H 1.959501 1.289802 1.259573
H 1.559491 0.203892 2.641946