16
H8 C5 N2 O1
C 0.810486 -0.977677 -1.317201
C -0.667252 -0.765676 -1.312710
N 0.129062 -1.696033 -0.283689
C 1.061003 -0.467049 1.611914
C -0.990615 0.138458 -0.116495
N -0.102201 -0.677045 0.772010
C -0.757244 1.638729 -0.281677
O 1.993072 -0.798756 -1.817067
H -1.315793 -1.148610 -2.034063
H 2.003663 -0.859016 1.160772
H 0.180252 1.858488 -0.696527
H 0.868850 -0.978511 2.505502
H -1.484208 2.046782 -0.900606
H -2.009883 -0.113583 0.211658
H 1.132128 0.644964 1.786450
H -0.851322 2.154538 0.711730