18
H9 C5 N1 O3
C -0.730498 -0.468487 0.095060
C 0.446762 2.110438 -2.330095
N -0.638581 0.837206 -0.440805
C -0.074803 -1.787009 2.155547
O 1.283658 0.070158 1.484621
C 0.582614 1.420178 -0.994633
O -0.370593 -1.383268 -0.962596
C 0.300535 -0.590165 1.317973
O 0.996124 3.142153 -2.644383
H 1.056594 2.111516 -0.277084
H -0.461820 -2.589708 1.673031
H -0.158454 1.511415 -3.028256
H -0.802524 -1.460518 2.902982
H -1.484396 1.382878 -0.451232
H -1.702578 -0.580101 0.465461
H 1.334641 0.578564 -1.140798
H 0.820167 -2.099611 2.702420
H -0.396854 -2.205659 -0.527236