15
H6 C5 O4
O 0.236700 1.107850 2.269804
C -0.308189 -1.289048 2.176310
C -0.151179 -0.376967 -1.990946
C 0.109677 0.009797 1.585961
O -0.398727 -0.814707 -0.608807
C 0.343038 0.061924 0.098362
O -0.066215 -1.569091 3.332208
C 0.030521 1.440577 -0.589523
O -0.172398 1.073312 -2.002189
H -0.794566 -1.949356 1.509049
H 0.744481 2.129692 -0.493283
H -0.844332 -0.759753 -2.702234
H -0.975343 1.807056 -0.244498
H 1.398936 -0.218691 0.030914
H 0.847588 -0.652569 -2.371151