17
H8 C8 O1
C -0.461185 0.454836 0.923789
C 0.833353 0.080468 0.248829
C -0.254471 1.193254 -1.015511
C -1.671436 -2.351325 -1.269988
C -0.997461 1.716578 0.277029
O 1.161284 1.235748 -0.549911
C -1.114355 -1.408932 -0.855935
C -0.477855 -0.301929 -0.342368
C 2.038550 -0.706005 0.820112
H -0.353414 1.534207 -2.042668
H 1.638637 -1.420228 1.520283
H -2.065090 1.712595 0.048047
H 2.799039 -0.049112 1.247790
H 2.514144 -1.228903 -0.032942
H -0.768810 0.101923 1.969925
H -0.667869 2.652049 0.652020
H -2.153062 -3.215219 -1.598497