19
H10 C6 N2 O1
C 0.279499 -0.521527 0.192402
C -0.533612 0.127534 1.297698
C 0.583125 -0.771626 -2.238672
C 1.846213 -0.303306 0.465385
N 1.112568 -1.245931 -3.121588
N -1.353151 -0.636694 2.041599
C -0.070684 -0.008147 -1.256662
O -0.313529 1.410266 1.529020
C -1.155613 0.943878 -1.461987
H -1.505693 1.533639 -0.608472
H 0.075726 -1.635066 0.231859
H 2.058778 -0.527340 1.474626
H 2.397582 -0.923917 -0.221201
H -0.860550 1.616037 -2.239247
H 0.573546 1.625776 0.952550
H -1.402520 -1.638031 1.863839
H -2.058181 0.461770 -1.950470
H -1.755420 -0.265961 2.819395
H 2.081916 0.758633 0.229885