21
H12 C8 O1
C -1.107363 0.478438 -0.333005
O -1.252261 -0.864597 0.336398
C -0.217128 -0.203102 -1.390812
C -0.282405 1.326998 0.659042
C 0.997243 0.579726 1.053654
C 0.006846 -1.271203 -0.181253
C 1.148222 -0.701124 0.618908
C 2.372854 -1.473642 0.879995
C -2.415206 1.106744 -0.741125
H 0.654024 0.273268 -1.793400
H 3.306533 -0.933578 0.574229
H -2.983117 1.385739 0.117750
H -0.891290 1.647290 1.491256
H 2.503362 -1.690932 1.952924
H -0.827526 -0.759416 -2.251532
H 0.067814 -2.282859 -0.396767
H -0.004199 2.304401 0.105680
H 2.453913 -2.440760 0.348564
H 1.672036 1.095747 1.680153
H -2.233907 2.003097 -1.327424
H -2.968466 0.419695 -1.403265