19
H10 C7 O2
O -1.926411 1.141359 -1.410552
C 1.381079 -0.418299 -0.893133
C -0.616551 1.010899 -0.856349
C 1.514177 0.170393 1.652532
C -1.636097 -1.249258 0.562375
O -1.705431 0.066927 1.249807
C 0.704971 -0.069479 0.438456
C 0.275211 0.158343 -1.690394
C -0.650592 -0.089852 0.291170
H 0.295352 0.278491 -2.728742
H -2.442066 -1.325470 -0.238290
H -2.555517 1.093678 -0.681855
H -0.218141 2.070433 -0.664593
H -1.384145 -1.980856 1.191867
H 2.337680 0.044654 -1.070885
H 1.466548 -1.537227 -1.006990
H 0.809602 0.275477 2.444655
H 2.192617 -0.670306 1.909325
H 2.157730 1.030103 1.501578