15
H6 C6 O3
O 0.892348 -0.359333 1.042054
C 1.433728 0.438139 0.056137
C -0.397486 0.275627 1.054276
C 2.284063 -1.078891 -2.052987
C -1.524650 -0.700336 0.625140
O -0.372175 1.995846 -0.787534
C 0.093257 1.200884 -0.133702
O -2.781714 0.032032 0.673897
C 1.885890 -0.323145 -1.073701
H -1.603711 -1.472060 1.386896
H 2.581262 -1.652419 -2.810684
H -2.695183 0.808449 0.062443
H -0.680046 0.837902 1.951946
H -1.314369 -1.144300 -0.366565
H 2.198792 1.141597 0.372362