18
H9 C7 N1 O1
C 0.757255 1.503085 0.913600
C -0.341667 -1.244805 0.281350
O -0.138643 0.678294 1.716704
C 0.963658 -1.189448 -0.850960
C 1.470086 -0.004988 -1.121257
N -1.498706 0.317549 0.823445
C -0.803294 0.424313 -0.506023
C 0.605100 1.128447 -0.575642
C -1.893572 -1.106568 0.421558
H 1.360950 -2.134579 -1.195740
H -1.243710 0.220659 -1.435340
H 0.052242 -1.776067 1.166783
H -2.487550 -1.163244 -0.510494
H 0.605867 2.522637 1.163229
H -2.350302 -1.682781 1.279702
H 0.633529 2.025184 -1.243569
H 2.485151 0.243932 -1.526445
H 1.823609 1.238412 1.199081