16
H8 C5 N2 O1
N 2.415610 -0.473574 -0.226789
C -0.316471 -0.788191 -0.962697
O -1.537177 1.154965 -0.380343
N 0.591246 -1.720217 -0.868262
C -1.124327 1.963476 0.707457
C -0.070108 0.913301 1.157431
C -0.840714 -0.031048 0.179851
C 2.005438 -1.451799 -0.739926
H 2.626775 -2.279023 -1.100110
H 0.877309 1.123819 0.834899
H -1.944253 2.102372 1.483850
H -0.091841 0.542282 2.183928
H -1.598519 -0.694831 0.657312
H -0.775085 -0.701243 -1.890834
H 0.493771 -2.597828 -1.484064
H -0.711643 2.937526 0.448300