23
H14 C8 O1
C -1.027195 0.201793 0.610553
C -1.984640 -0.946337 0.302249
C 1.767670 -1.269720 0.865096
C 0.134526 0.475623 -0.431761
C -0.131018 1.949145 -0.261994
C -1.554596 1.638509 0.372790
C 2.001652 -1.433246 -0.631247
O -0.270030 0.060270 -1.708618
C 1.565943 -0.127025 -0.093971
H -2.805025 -0.962472 1.056342
H 0.907053 -1.856203 1.231298
H -0.545797 0.123428 1.623012
H -1.472178 -1.965558 0.474043
H 1.248280 -2.036145 -1.146104
H -1.791500 2.244595 1.253856
H -2.393809 -0.885684 -0.711652
H 3.021919 -1.546554 -0.942128
H 0.364727 0.364951 -2.328491
H 2.574464 -1.232538 1.558478
H -0.133626 2.536631 -1.196544
H 2.332332 0.643759 0.025373
H 0.552594 2.345001 0.449642
H -2.361716 1.677747 -0.370280