20
H11 C7 N1 O1
C 2.268801 -0.836442 0.354328
N 0.743377 0.974865 -0.277749
C -0.168822 -0.726052 1.225567
C 0.128939 0.569215 -1.449050
C -0.816196 1.273466 -0.524001
C -1.207995 0.282829 0.871485
C -2.209488 0.532045 -0.066008
C 1.163135 0.102461 0.810960
O -2.938808 -0.392587 -0.774425
H 0.435833 1.082858 -2.337778
H -2.239574 -0.823010 -1.399180
H -0.987925 2.318562 -0.454371
H -0.113094 -1.063292 2.208620
H -0.311920 -1.543714 0.551843
H 1.474698 0.671012 1.614686
H -2.854274 1.300043 0.419566
H 2.025424 -1.467896 -0.515645
H -0.077594 -0.461229 -1.604408
H 2.527148 -1.490621 1.206537
H 3.158316 -0.302495 0.139056