18
H10 C8
C -1.600237 -0.425823 -0.811295
C -1.400362 -0.342072 0.750187
C 0.780727 0.018619 -0.132964
C 0.498733 0.727817 1.204731
C -0.914674 1.132546 0.615414
C -0.503031 0.655857 -0.799512
C 0.051673 -0.745714 1.041457
C 2.047274 -0.376060 -0.689915
H 1.095088 1.159864 1.982669
H -0.238837 1.338226 -1.703501
H -1.448614 2.047265 0.791379
H 2.780910 0.460966 -0.955756
H 1.981410 -0.914464 -1.700688
H 2.603667 -1.063965 -0.057206
H -2.549066 -0.003847 -1.134783
H -1.387562 -1.337166 -1.296508
H -2.195666 -0.662640 1.421831
H 0.398581 -1.669402 1.474471