21
H12 C7 O2
C -3.110137 -0.501948 0.666206
C 0.357983 0.195240 -0.617550
C -2.083315 -0.124621 -0.312982
O -4.294143 -0.750928 0.090390
C 1.846872 0.463570 -0.233764
C 2.265282 -0.237513 1.017980
C -0.641744 -0.168853 0.313603
O 2.105983 1.832196 -0.362708
C 2.652972 0.933262 -1.311740
H 3.300472 0.041529 1.210139
H -2.363661 0.902068 -0.573538
H 2.363977 0.961290 -2.348627
H 2.268855 -1.304696 0.923094
H -2.107561 -0.719787 -1.217378
H -0.542558 0.511366 1.150471
H 0.091846 0.455762 -1.593213
H -4.265866 -1.703878 0.223486
H 1.698705 0.036982 1.896956
H -0.370525 -1.180680 0.639489
H 3.791369 0.727664 -1.196672
H -2.964793 -0.368008 1.636373