19
H10 C6 O3
C -0.423379 -0.564487 -1.822821
C -0.415792 -1.210906 0.668597
O 2.291769 0.195449 0.254590
C -1.093071 0.103443 0.657404
C 1.103436 0.820295 -0.174938
C -0.117825 -0.235634 -0.461254
O -1.151564 -2.282987 0.236485
C 0.499654 1.711422 0.893579
O -0.538578 0.996823 1.526049
H -0.587510 0.407434 -2.494370
H -2.193207 0.152507 0.472062
H 1.219579 2.122607 1.660400
H 0.328281 -1.329225 1.443159
H 2.197310 -0.094740 1.062182
H 1.416954 1.346130 -1.057291
H 0.113762 2.656255 0.411408
H -1.786252 -2.560584 1.032802
H 0.416115 -1.056144 -2.341200
H -1.279676 -1.177617 -1.966814