12
H3 C4 N5
C 0.128373 -0.809524 0.142656
N -0.370472 1.433865 -0.423109
N 0.000810 -2.084270 -0.378462
N 0.691399 -0.473058 1.306223
N -0.773719 -0.440905 -1.857665
C -0.592690 -1.795679 -1.529290
C 0.728596 0.821477 1.585066
C 0.104845 1.771792 0.742691
N -0.319950 0.107348 -0.787394
H 1.142050 1.160489 2.553061
H -0.881085 -2.531550 -2.305772
H 0.141858 2.840042 0.951972