23
H14 C7 O2
C -0.611135 0.146049 0.393112
C 0.538734 2.436579 -0.427363
C -0.225814 -1.401078 0.233424
C 0.606798 1.078239 0.284576
C 0.727244 -1.957377 1.327412
O 0.995014 -3.320546 1.077363
C -1.755984 0.362166 -0.601882
C 1.338633 1.306105 -1.084177
O -1.439173 0.137821 -1.939659
H 1.214572 1.009573 1.153483
H -2.636403 -0.171144 -0.242753
H -2.142704 1.389843 -0.417962
H 0.899434 0.873898 -1.913298
H 1.573676 -3.561493 1.785740
H 0.230716 -1.672338 2.353901
H 0.207955 -1.569312 -0.685262
H 1.660719 -1.343674 1.313278
H -1.063279 0.234018 1.398979
H -0.378947 2.727185 -0.977487
H 2.414297 1.472892 -1.001993
H -1.167787 -1.990693 0.339874
H -1.916701 0.506826 -2.492266
H 0.930138 3.306424 0.122999