18
H9 C6 N1 O2
O 1.685224 -2.294790 -0.685621
C -1.695869 1.060769 0.271747
C -0.372176 1.883330 0.462271
C 0.086418 -1.070941 1.059138
C -0.934182 0.234359 -0.810533
O 0.902975 -1.159006 2.051014
C 0.301583 -0.372687 -0.229679
C 1.537499 -0.928053 -1.020528
N 0.216954 1.133714 -0.647114
H -1.329630 -0.166775 -1.694560
H -0.460070 2.960617 0.217258
H -0.942123 -1.695066 1.242464
H 1.241705 -0.847922 -2.061494
H 2.424816 -0.326186 -0.724638
H -2.486283 1.681422 -0.226602
H -2.114011 0.612272 1.156439
H 1.788421 -2.384776 0.230562
H 0.148745 1.679690 1.409871