21
H12 C7 O2
O 0.666128 -1.077520 0.674978
C 0.437048 1.176561 -1.150653
C -1.780410 0.143491 -0.505601
C 1.627338 -0.167824 0.799540
C -0.648809 -1.045275 1.332792
C -1.722538 -1.144790 0.286125
C 1.749369 0.820119 -0.449408
O 0.269791 0.053177 -2.082793
C -0.884828 1.242370 -0.417641
H 2.411620 0.411755 -1.254659
H -1.033832 1.991169 0.282343
H -1.576523 -2.065279 -0.317846
H 2.263416 1.711097 -0.063252
H -2.445308 0.140532 -1.313678
H -2.741832 -1.310362 0.767696
H 0.471989 2.204696 -1.557115
H 2.585249 -0.681391 0.878233
H 0.285666 -0.807291 -1.599333
H 1.499631 0.407544 1.703478
H -0.658043 -1.876215 2.036079
H -0.775102 -0.126562 1.950711