14
H6 C6 O2
C -0.329824 1.357796 0.332910
C 0.550092 1.513823 -0.957349
C 0.368526 -0.558870 -0.630685
O 0.700353 0.068944 -1.637203
C -0.729773 -1.404466 1.012506
O 1.054867 -2.999058 -0.136448
C -0.387208 -0.111463 0.404008
C 0.397140 -2.041242 -0.023846
H 0.141465 2.105824 -1.768314
H -0.503311 -1.575055 1.990715
H 1.557467 1.790038 -0.711537
H -1.707760 -1.836787 0.771061
H 0.186027 1.885011 1.188966
H -1.298058 1.805499 0.165234