18
H9 C6 N1 O2
C -1.097995 0.278331 1.083214
C -0.885583 -0.316496 -0.308882
C -1.029655 0.776682 -1.380159
C 1.348975 -0.968728 -1.471344
N 1.232417 0.058652 0.671483
C 0.563304 -0.840476 -0.237560
O -1.658101 1.663812 -1.356725
O 1.036946 -0.681881 -2.636470
C 0.240980 0.830257 1.481518
H 2.388451 -1.411592 -1.247805
H -1.633844 -1.117954 -0.529006
H -0.448702 0.842342 -2.187898
H 0.382409 1.951610 1.160871
H 0.477609 0.817624 2.584043
H -1.373071 -0.581512 1.797740
H -1.931416 0.968532 1.099660
H 0.508619 -1.856208 0.204877
H 1.878617 -0.413000 1.272435