25
H16 C9
C 0.199888 -0.472137 -0.229232
C -1.338434 -2.281496 -0.066536
C 0.817400 1.019487 -0.091258
C 0.281136 1.844632 -1.260912
C -1.413218 -1.449071 1.216281
C -0.613418 -1.334983 -1.134431
C 0.026615 1.126421 1.301634
C 2.296943 1.120112 0.072944
C -0.870595 -0.015461 0.817495
H 2.713740 0.598374 0.909165
H -0.771977 -1.842482 1.988193
H -1.334115 -0.756221 -1.676059
H -2.254866 -2.502987 -0.462456
H 2.570209 2.163080 0.174188
H -2.456604 -1.406968 1.684149
H 2.859705 0.788411 -0.820159
H 0.753501 1.558188 -2.219351
H -0.755569 -3.196722 0.084833
H -1.698967 0.450046 0.290482
H 0.670441 0.865184 2.079004
H -0.818681 1.686039 -1.428092
H 1.016629 -1.121276 0.268347
H 0.443517 2.946072 -1.117748
H -0.347866 2.175772 1.446226
H 0.024556 -1.961957 -1.826711