19
H10 C8 O1
C -0.369954 -0.514403 0.977074
O -1.658018 0.097209 0.805976
C 0.475677 1.611997 -0.566037
C -0.467365 1.187103 -1.625615
C -0.980711 -0.789321 -0.267666
C 1.232468 0.327931 -0.655499
C -0.026515 -0.350842 -1.409731
C 0.636773 0.684368 0.613323
C -0.014571 -1.455206 1.991339
H -1.511604 1.379886 -1.504065
H -0.210793 1.597260 -2.660772
H -1.633968 -1.565839 -0.499885
H -0.119310 -1.014675 2.997847
H 1.108527 1.114810 1.500082
H 0.994788 -1.838231 1.877495
H -0.702660 -2.333584 1.967866
H 0.053599 -0.947900 -2.244906
H 2.295394 0.167716 -0.784681
H 0.898266 2.641688 -0.512144