21
H12 C8 O1
C -0.166472 -1.552708 -0.667285
C 1.102047 -1.972759 0.016274
C -1.262037 -0.898219 0.225283
C 0.062867 2.249979 -0.390010
C 0.963521 0.165682 0.969354
C -1.270992 1.785156 0.236075
C 0.228832 -0.245678 -1.207109
C -0.192898 0.650470 0.007351
O 1.795108 -0.776626 0.280052
H -1.377030 2.079558 1.209616
H -2.081590 1.818876 -0.461554
H -1.464731 -1.153935 1.203806
H -2.220850 -0.717308 -0.357525
H 0.969292 -2.581004 0.909512
H 0.558955 -0.281388 1.852011
H 0.708911 -0.009491 -2.071548
H 1.797686 -2.542279 -0.573120
H 1.591277 1.001908 1.303998
H -0.532980 -2.302349 -1.314194
H 0.714658 2.810241 0.255562
H 0.076459 2.471869 -1.426562