17
H8 C5 N2 O2
O 0.094009 -0.910236 -0.901927
C 1.149632 -0.041304 -0.615200
C -0.328058 2.002399 0.000998
C -1.130908 0.466009 1.813662
N -0.211032 1.249545 1.254304
C 0.811658 1.132062 0.274212
C 0.383739 -2.057557 -1.628359
O 2.272105 -0.165130 -0.972987
N -1.231260 -0.806916 1.531963
H 0.931977 -1.802049 -2.563576
H -1.115304 1.619869 -0.632833
H -0.512319 -2.616040 -1.733252
H 1.778854 1.589183 0.528888
H -0.185054 3.069280 0.093085
H -2.090874 -1.066167 2.091167
H 1.165885 -2.691841 -1.052132
H -1.783064 1.028887 2.511986