22
H13 C7 N1 O1
C -1.304408 -1.607650 0.309143
C -1.565615 -1.603441 -1.368786
N -0.724302 -0.675686 0.857714
C -0.301845 -1.142012 -1.821406
C -0.765389 1.745081 1.018981
C 1.368152 0.420434 -0.026568
O -1.787941 -2.467342 0.983670
C -0.272814 0.652861 0.099475
C 2.181684 0.717931 1.228438
H -0.779970 2.663599 0.481741
H -0.188226 1.849656 1.884488
H 1.913516 -0.024984 2.026804
H -2.442396 -0.976360 -1.539436
H 2.038783 1.692149 1.709175
H -0.795744 0.930491 -0.835775
H -0.244292 -0.547500 -2.679192
H -1.823442 1.587471 1.262491
H 1.677719 -0.588741 -0.362886
H 0.622739 -1.807303 -1.613634
H -1.708595 -2.538988 -1.924790
H 1.645996 1.167913 -0.764469
H 3.256367 0.552423 1.074826