16
H7 C4 N3 O2
N 0.568531 0.397583 -0.259060
C 1.652825 0.934686 -0.992262
C -1.318987 -1.072854 -0.037727
N -0.506232 -0.223429 -0.853053
C -1.505414 -0.539817 1.435627
O 1.434812 1.359613 1.662439
N 1.701554 0.615209 -2.222143
C 0.667004 0.634390 1.083860
O -0.178214 -0.131694 1.905218
H -0.117130 -0.505486 -1.822199
H -2.331609 -1.192746 -0.458207
H 2.600516 1.141530 -2.627555
H -0.917113 -2.145844 0.021573
H -1.856718 -1.209530 2.199190
H 2.224915 1.553028 -0.420196
H -2.118744 0.385386 1.384458