16
H8 C6 O2
O 1.473083 0.426099 1.061345
C 1.449592 0.985647 -0.260398
C -0.357274 -0.764407 -0.241515
C 1.167003 -0.421577 -0.055195
C 0.107129 1.636951 -0.611928
C -0.929329 -1.412674 1.056896
C -0.954613 0.663149 -0.544329
O -0.404296 1.104431 -1.756483
H -0.734945 -0.803468 1.897152
H -0.122318 2.760543 -0.389218
H -2.011417 -1.560927 0.965831
H -0.460977 -2.383893 1.235646
H 1.884519 -1.215925 -0.301771
H 2.410428 1.413151 -0.543092
H -2.014566 0.941497 -0.438122
H -0.501976 -1.368606 -1.074859