17
H8 C5 N4
C -0.402495 -0.271350 1.360712
N -0.881732 -0.779209 -0.909297
C -0.522384 0.652315 -1.251206
N -0.811362 -1.145341 0.482418
C 1.562669 0.158156 -0.701827
C 0.417646 1.280059 -0.157355
N -0.525527 -0.684222 2.677751
C 0.358497 -0.317770 -1.617269
N 0.059828 0.965849 1.211884
H -1.419001 -1.392108 -1.494006
H -0.781389 -0.005198 3.443147
H 0.735435 2.277921 -0.291576
H -1.238889 1.290572 -1.850912
H 0.497055 -0.712379 -2.607306
H 2.280983 0.671904 -1.197808
H -1.187962 -1.516342 2.850146
H 1.858588 -0.472874 0.052488