17
H8 C6 O3
C 1.101327 -0.087136 -0.555654
C -1.017091 0.226872 -1.075683
O 2.218483 -1.856693 0.598218
C -1.426344 0.580075 1.895340
C -0.123389 -0.954295 -1.122349
O -0.153443 0.701327 1.372025
C 2.075727 -0.660669 0.394288
C -0.011110 0.932531 -0.024451
O -1.507902 0.652655 3.087184
H -2.056500 0.124283 -0.700097
H 0.225553 1.936124 -0.164977
H 0.033053 -1.455287 -2.147844
H -0.397165 -1.786497 -0.457299
H 2.659414 0.096554 1.013924
H 1.639063 0.331705 -1.343205
H -1.045531 0.916343 -1.997658
H -2.214165 0.302127 1.228251