19
H10 C6 O3
C -1.128465 1.340517 -0.425489
C 1.772707 -1.260065 -1.210377
C 0.782192 -0.329644 0.401526
C -0.123803 0.880174 0.590275
O 0.582945 1.907470 1.238498
C 0.371918 -1.491489 -0.524496
O 1.956042 -0.027258 -0.449452
C -1.568251 0.759702 0.935254
O -2.023816 -0.470429 0.877732
H 2.608069 -1.993137 -0.885522
H -3.026813 -0.445135 0.762376
H 1.814542 -1.167878 -2.149572
H -1.886076 1.491143 1.688931
H 0.224814 -2.542611 0.020146
H -1.212199 2.402805 -0.559178
H -0.430810 -1.294343 -1.140841
H -1.256425 0.816741 -1.322807
H 1.436297 2.038961 0.735218
H 1.107120 -0.615528 1.417767