20
H11 C6 N1 O2
C 0.728555 0.232861 0.375040
C 0.913791 -1.412951 2.046673
O -0.562839 2.345990 -1.562838
C -1.516122 -0.818730 -0.141095
C 1.945627 0.831063 -0.346514
C -1.052056 1.234502 -1.279038
N -2.227092 0.675709 -1.957845
C -0.534970 0.282164 -0.376647
O 1.044652 -1.185169 0.657374
H 1.635554 -0.824087 2.596584
H -2.299179 -0.597502 0.620751
H -2.531352 1.283357 -2.629895
H -0.128910 -1.313565 2.395923
H -2.711344 -0.079793 -1.866585
H -1.270633 -1.760870 -0.501434
H 1.222740 -2.470659 2.127970
H 2.149447 0.202817 -1.179361
H 2.884436 0.746190 0.340883
H 1.759273 1.793862 -0.633314
H 0.550453 0.834778 1.313392