15
H6 C7 O2
C 0.517121 -2.063396 -0.314365
C 1.008987 0.803316 -0.898066
C -0.944497 0.961767 1.203194
C -0.717239 -0.381165 1.303702
O 1.499024 0.202151 0.248475
C -0.308542 1.538104 -0.030262
C -0.389464 0.409740 -0.959908
C 0.142821 -0.667201 0.092289
O 0.708159 -2.933919 0.461277
H 1.681885 1.075952 -1.703184
H -0.979155 -1.066657 2.001495
H 0.699037 -2.265483 -1.362335
H -1.101663 0.258514 -1.700393
H -1.499865 1.574682 1.869494
H -0.316611 2.553607 -0.211391