18
H9 C7 N1 O1
C -0.167293 0.357903 0.828366
C -1.279568 0.399194 2.757199
C 0.344510 -1.227339 -1.864572
C 0.763491 0.293062 -1.577998
O 2.072119 0.451206 -2.076588
C 0.809949 0.642177 -0.170677
C -1.781377 -0.562984 1.877345
C -0.257089 0.973552 2.069832
N -1.123300 -0.627636 0.726848
H -0.631245 -1.384884 -1.558883
H 1.572356 1.357052 0.034002
H -1.650899 0.646765 3.699427
H 0.414417 1.743320 2.485615
H -2.640254 -1.242829 2.085876
H 0.964472 -1.882820 -1.304528
H 0.046205 0.912187 -2.057856
H 0.478600 -1.451363 -2.913671
H 2.064898 0.603422 -3.039702