12
H3 C4 N5
C 0.000868 -0.069852 0.438659
N 1.156030 0.952486 3.587928
N -0.025250 -0.295517 1.810746
N 0.683370 1.004977 0.005694
C 0.013081 0.390632 -2.128973
C 0.600745 0.374697 2.792819
N -0.749528 -0.968251 -0.273162
C -0.714112 -0.676597 -1.600632
N 0.669902 1.259141 -1.277873
H -1.314635 -1.342197 -2.222095
H -0.419913 -1.275087 2.019290
H 0.099418 0.645573 -3.152406