21
H12 C8 O1
C 1.208889 -1.178100 0.057745
C 0.654801 1.364814 -0.408297
C 2.760738 -1.401644 -0.106014
O -2.077000 -1.088084 0.254833
C 0.726774 -0.050427 -0.879162
C -2.545867 1.167912 0.666464
C -3.450535 1.967048 0.859559
C -0.610778 0.630956 -0.651632
C -1.517686 0.215569 0.515861
H 3.043060 -1.673681 -1.097924
H 0.698542 -2.148584 -0.275861
H 0.991928 1.555248 0.457638
H -1.182455 0.845645 -1.545524
H 3.263232 -0.484021 0.193786
H 0.911627 2.152457 -1.112347
H -4.275620 2.686485 1.046706
H -2.748876 -1.261347 0.897394
H 1.036532 -0.226167 -1.922193
H 3.057270 -2.201738 0.568479
H 0.958944 -0.983691 1.043954
H -0.903528 0.111385 1.436557