12
H3 C4 N5
C -0.031565 -1.333621 -1.286292
N -0.091970 1.420277 1.039883
N 0.673839 -1.739751 -0.316599
N 1.271327 -0.328769 1.768998
N -1.422693 0.511562 -2.038215
C -0.124443 0.469281 0.136333
C -0.656664 -0.017286 -1.137269
C 0.730716 0.863533 2.026910
N 0.648017 -0.635775 0.575468
H -0.202857 -2.022588 -2.104212
H 0.948877 1.434219 2.912361
H -1.742596 1.378927 -1.577394