19
H10 C8 O1
C -0.946461 0.147144 0.491850
C 0.484440 -0.296288 0.825386
C -1.157873 0.453469 -2.132818
C 0.019692 1.128659 0.865863
O 0.484720 2.089268 -0.057459
C 1.356765 -1.563739 3.000308
C 0.951945 -0.979493 2.000991
C 0.739221 -0.719711 -0.611778
C -0.744061 -0.473243 -0.947775
H 1.023222 -1.825018 -0.712055
H -1.875721 -0.076099 1.050512
H -0.159339 1.517992 1.840901
H -2.184458 0.651908 -2.215018
H 1.439501 2.140239 0.035033
H -1.296136 -1.377458 -1.024775
H 1.749587 -2.043864 3.848840
H -0.535901 1.432545 -2.070950
H 1.468837 -0.167325 -1.141312
H -0.817988 -0.038971 -3.045726