22
H13 C8 N1
C 0.236835 -0.339546 0.996858
C -0.071872 -0.492074 2.500447
C 1.070491 0.994563 -2.117917
C 0.651586 0.330077 -0.900162
C 1.486946 -0.487075 0.130492
C 0.150184 -0.159688 -2.241533
C -0.619388 -1.479252 1.526248
C -1.560151 1.210696 0.079293
N -0.134286 0.866263 0.214510
H 2.325933 0.042761 0.592508
H 1.769683 -1.488241 -0.099379
H -0.232575 -2.495097 1.526053
H 0.574454 -1.066534 -2.623158
H -1.745952 -1.489549 1.348814
H 0.670924 1.997894 -2.258370
H 0.785539 -0.868598 3.109318
H -2.272930 0.223075 -0.036976
H -1.705103 1.839009 -0.795395
H -1.906487 1.758979 0.960851
H -0.871231 -0.011509 -2.485920
H -0.728501 0.198048 2.980852
H 2.125903 0.915803 -2.407428