19
H10 C7 O2
O 0.895697 1.807516 -0.236257
C 0.918283 0.863231 0.878046
C -0.213542 1.838974 0.751724
C 1.392290 -1.186488 -0.476500
C 0.465458 -0.562317 0.522031
C -1.480517 1.003837 0.266025
C -0.965651 -0.359384 0.088082
C -1.350551 0.399353 -1.110713
O 0.833201 -2.433956 -0.973719
H -2.437755 1.282984 0.680974
H 2.417085 -1.317923 -0.124558
H -1.634752 -1.220522 0.394220
H 1.440642 -0.566149 -1.441190
H 1.698836 1.030007 1.581291
H -0.566683 0.741576 -1.739877
H 0.623649 -3.028207 -0.254582
H 0.541146 -1.123834 1.464797
H -0.309940 2.714188 1.326303
H -2.266915 0.117120 -1.596093