17
H8 C6 O3
C -0.463804 0.505453 0.198041
C 1.540126 0.415686 1.475734
O 1.416823 -0.796109 0.664788
C 0.268500 -0.642975 -0.162308
C -1.688959 0.910198 -0.546611
O 0.082109 -1.197338 -2.550123
C -0.009325 -1.662189 -1.137390
C 0.117880 1.126187 1.334983
O -2.114772 0.388135 -1.521056
H -0.709507 -0.614233 -2.622255
H -0.994603 -2.152597 -1.009921
H 2.362607 1.032258 1.108986
H -2.183450 1.802035 -0.110860
H 0.776036 -2.442435 -1.107663
H -0.395381 1.072114 2.308389
H 1.733727 0.031450 2.474121
H 0.261990 2.224355 1.203105