16
H8 C5 N2 O1
O -1.151356 -0.176412 1.206097
C -0.172428 0.512666 -0.838939
C -0.590401 -1.288980 0.665020
C -0.981654 0.943907 0.433142
N -1.421205 2.058534 0.655121
C 0.946690 -1.363351 0.558082
C 0.167465 -0.965123 -0.666039
N 1.004202 1.473644 -0.991144
H -0.890043 0.668523 -1.665660
H 0.098317 -1.612589 -1.508146
H -1.899852 2.065457 1.604037
H 1.431966 -0.545948 1.130622
H 1.518935 1.519705 -0.121364
H -1.158105 -2.204226 0.804297
H 1.492790 -2.272108 0.516855
H 1.604648 1.186296 -1.781989