21
H12 C8 O1
C 1.410280 -1.095639 -0.613628
O -1.749434 -0.515625 1.161298
C 0.197199 -1.130023 -0.068931
C 1.762583 1.525355 -0.602511
C -2.768488 -1.361890 0.633053
C 0.740889 1.966985 0.103567
C 2.292535 0.093689 -1.017218
C -0.797895 -0.115931 0.237683
C -0.362145 1.251309 0.823146
H 2.419791 0.056949 -2.122489
H -1.238297 0.129155 -0.763564
H -2.335868 -2.349462 0.298965
H -3.294957 -0.860141 -0.196849
H -3.471216 -1.598156 1.473568
H -1.188071 1.912722 0.883630
H 2.484681 2.256138 -1.061362
H -0.032524 1.049963 1.883042
H 1.980740 -2.009298 -0.832789
H -0.088956 -2.182602 0.135527
H 0.721378 3.023557 0.216509
H 3.317788 -0.047042 -0.570617