18
H9 C7 N1 O1
C -1.445876 0.329301 -0.821164
C 1.392110 0.101772 1.477973
O -1.357157 -0.983304 -2.809261
C 0.435140 0.313069 2.368965
C -0.822544 0.458603 1.686118
N 0.810790 0.138671 0.175400
C -0.518914 0.321130 0.388431
C 1.582415 -0.089292 -1.023592
C -1.448949 -0.958952 -1.644562
H 2.535881 0.490438 -0.961144
H 2.397485 -0.006051 1.543758
H -1.264495 1.194144 -1.490840
H -1.437822 -1.856873 -0.991320
H -2.484627 0.498855 -0.432397
H 0.517241 0.384689 3.453119
H 1.849534 -1.164289 -1.131273
H -1.743257 0.635654 2.109856
H 1.003023 0.192435 -1.898100