16
H8 C6 N2
N 0.345346 -0.803080 1.871316
C -1.057781 -0.579953 1.319628
C 1.413821 -0.512112 0.846773
C -0.346604 1.165848 -2.002578
N 0.865853 0.755480 -1.475649
C -1.328032 0.751620 -1.158237
C 0.621156 0.115013 -0.247538
C -0.751267 0.142389 0.015094
H 1.729392 0.914575 -1.888477
H -1.684898 -1.463800 1.160213
H 2.170861 0.167202 1.298716
H 2.007085 -1.341838 0.512772
H -0.402506 1.574375 -3.006395
H -1.539997 0.135602 2.019530
H 0.371474 -1.904611 2.037264
H -2.413884 0.883264 -1.302418