14
H6 C6 O2
C 0.130895 -0.773110 1.042530
C -1.222379 -0.025383 0.188549
O 1.726772 1.926697 1.190477
C 0.883113 1.710102 0.326799
C 0.204748 0.437949 0.000007
O -1.122609 -0.316915 1.581805
C 0.367174 -0.410585 -1.182968
C -0.578715 -1.248960 -0.350371
H -2.208513 0.482797 -0.107761
H -0.995188 -2.213249 -0.510407
H 0.586874 2.544231 -0.260148
H -0.042224 -0.024644 -2.099791
H 1.341608 -0.852397 -1.418799
H 0.928445 -1.236525 1.600074