14
H6 C6 O2
C -0.046362 -0.324024 0.514898
C -0.304056 0.904450 -1.541126
C 1.000552 1.112411 -0.965278
O -2.204601 -0.336873 -0.699957
C -1.062257 0.017468 -0.561985
O 0.820594 0.259813 -2.061250
C -0.390358 -1.330023 1.604213
C 1.057803 0.398861 0.317567
H 0.364939 -1.383015 2.326126
H 1.964952 0.356653 0.993955
H -0.858547 1.620561 -2.160725
H 1.585577 2.061433 -1.122216
H -1.333198 -1.025931 2.144462
H -0.595042 -2.331767 1.211294