18
H9 C6 N1 O2
O -1.151173 -0.970548 -0.304013
C 0.569553 0.776981 -1.310014
C -1.416218 -1.547537 -1.640082
C -0.796379 0.325003 -0.377194
C 0.074891 0.863100 0.806788
O 1.505036 -0.999583 0.894427
C 0.997425 -0.087094 1.501766
C 0.551119 1.230507 -0.415857
N 1.307716 0.244978 2.791068
H 2.036194 -0.264147 3.204890
H -1.869042 -2.521479 -1.446369
H 0.564933 1.841933 -1.676226
H 1.232724 -0.015719 -1.471555
H 0.939493 1.075283 3.168470
H -2.081802 -0.968920 -2.282622
H -1.647538 0.960372 -0.682677
H -0.416519 1.773031 1.404992
H -0.400414 -1.716127 -2.165778