21
H12 C8 O1
C -1.889761 0.793490 1.056063
C 2.093781 -0.280176 -0.145500
C 1.601365 1.020254 -0.897852
C 1.253424 0.131269 1.027062
C 0.308118 0.354911 -0.232541
C -1.186193 0.356114 -0.203769
O -0.111599 -1.928625 -0.126183
C -1.430520 -1.306597 -0.394835
C 0.807554 -0.944975 -0.734627
H 1.545510 1.055647 1.494090
H -1.604827 1.835361 1.252205
H 1.950799 1.977036 -0.557413
H 3.084735 -0.652568 -0.110659
H 0.968633 -0.628407 1.713202
H -1.793942 -1.602144 -1.382681
H -2.073604 -1.738508 0.375681
H 1.642781 0.944980 -2.039561
H -1.616564 0.830742 -1.108426
H 0.915446 -1.184161 -1.829202
H -1.483928 0.269391 1.845334
H -2.981227 0.696950 0.999641