18
H9 C8 N1
C -1.119326 -2.708072 -0.065471
N 1.189156 0.149058 0.307268
C 0.010320 0.656747 0.934076
C 0.788006 -1.067835 -0.324128
C 0.336739 2.210424 -0.824186
C 0.316013 2.080633 0.687297
C 1.462461 1.542161 -0.227291
C -0.510273 -1.342879 0.201443
C -0.951266 -0.267597 0.952528
H 2.495732 1.887588 -0.274227
H 0.479079 3.211405 -1.255458
H -2.132626 -2.514315 -0.517526
H -1.267954 -3.307168 0.779898
H 1.474442 -1.560014 -0.966570
H -0.411910 1.572019 -1.336917
H -0.612100 -3.282706 -0.823173
H 0.411348 2.893803 1.388476
H -1.957821 -0.153244 1.363987