23
H14 C6 O3
C 0.571735 2.191701 0.919077
O -0.412032 -1.301792 -0.150639
C -1.219498 -3.428369 -0.748695
C -1.621858 -1.983345 -0.297991
C -0.628474 0.060337 0.258401
C 0.748682 0.808800 0.323909
O -2.460267 -1.438790 -1.099948
O 1.878660 2.908311 1.074240
C 1.297322 0.930201 -1.096529
H 0.690326 1.512128 -1.759712
H -2.075433 -2.084858 0.723184
H 0.092010 2.102320 1.968960
H 2.280522 1.413338 -1.080354
H -0.682745 -3.358948 -1.694809
H 2.410840 2.245790 1.506855
H 1.653049 3.783353 1.418736
H 1.414069 -0.078991 -1.499865
H -1.084284 0.017974 1.251856
H 1.384693 0.198178 0.963971
H -0.653100 -3.862179 -0.005169
H -1.332322 0.556580 -0.424240
H -2.193988 -3.987473 -0.884686
H -0.057945 2.795731 0.333471