21
H12 C7 O2
C -1.462428 0.836936 0.284064
O -1.950916 -0.261746 1.062173
C 0.805637 0.165747 1.198017
C 1.027324 -1.786351 -0.539361
C -1.170055 -1.379631 0.734297
C 0.226194 -0.840345 0.328396
C -0.014098 0.599827 0.007049
C 0.722496 1.385715 -1.076941
O 0.664917 2.786821 -0.773500
H -1.643821 -1.917311 -0.092323
H 1.953078 -1.357570 -0.851686
H 1.272619 -2.718164 0.041641
H -2.044857 0.898829 -0.651363
H 1.910149 0.324796 1.154795
H 1.748775 1.111064 -1.148313
H -1.680413 1.733553 0.855657
H 0.354063 0.291529 2.194348
H -0.233358 3.128186 -0.831985
H 0.198385 1.148257 -2.049001
H -1.156783 -2.046195 1.605267
H 0.473100 -2.103976 -1.451243