13
H4 C5 N2 O2
O -1.169230 1.202966 1.175000
C 0.729058 -0.385282 -1.434621
N -0.352519 -0.732507 1.989452
C 0.071662 -0.526242 0.624368
C -1.006945 0.341112 2.265246
C 0.761095 -1.226280 -0.267342
N 0.017615 0.783912 -1.250167
C -0.467770 0.752638 0.004751
O 1.323862 -0.646217 -2.568136
H 1.195108 0.053068 -3.187112
H -1.490007 0.578710 3.178271
H -0.968653 1.973015 -0.306879
H 1.356720 -2.168919 -0.222840