14
H6 C8
C -0.255122 -1.321133 -0.594173
C -0.046999 0.046109 0.030235
C -1.109242 0.235274 1.130857
C 2.457334 0.083826 1.049052
C -0.438093 -2.389555 -1.099919
C -0.223642 1.960790 -1.789217
C -0.167528 1.037722 -1.038182
C 1.350165 0.017233 0.555297
H -0.922480 1.253836 1.547165
H -0.611440 -3.409160 -1.501068
H -0.376017 2.668208 -2.472331
H -1.001870 -0.507026 1.924399
H 3.421766 0.112472 1.564105
H -2.076836 0.211407 0.693777