19
H10 C7 O2
C -1.627835 2.004036 0.091000
C 0.518878 -0.820668 -0.073282
C 0.902126 -2.123498 -0.226186
C 0.172470 2.023168 1.925495
C -0.142088 1.695566 0.435319
O 0.237911 3.308632 2.193712
C 0.208497 0.373285 0.091429
C 0.619505 -3.102856 -1.916391
O 0.043778 -3.019400 -0.529751
H 1.892637 -2.331509 0.055669
H 1.208888 1.574748 2.239621
H -2.271720 1.321885 0.683337
H 0.515150 2.360541 -0.143321
H -0.024091 -3.995002 -2.331145
H -1.841143 3.026010 0.386800
H -1.859018 1.790341 -0.961731
H -0.630125 1.501132 2.614470
H 0.412023 -2.189628 -2.503920
H 1.664138 -3.396818 -2.031117