17
H8 C5 N2 O2
C 0.049839 -0.139750 1.256145
C -1.591539 -2.014049 1.403159
C 1.736867 2.253588 -1.230386
O -1.509222 -2.090158 2.569075
C 0.558459 0.610950 0.001979
O -0.079820 0.146079 -1.097294
N 1.355517 1.631788 -0.013577
C -0.893243 -1.048973 -0.788058
N -0.933214 -1.091009 0.688481
H -1.870219 -0.851685 -1.195639
H -0.423080 -1.850624 -1.271884
H -0.467901 0.550520 1.933513
H 2.154531 3.188572 -0.990332
H 0.847773 2.355199 -1.957703
H 0.797573 -0.625596 1.745476
H 2.513640 1.664126 -1.785682
H -2.245972 -2.688995 0.732758