16
H7 C6 N1 O2
C 0.135351 -0.702357 -0.654581
N -0.696860 1.398793 0.985913
C -1.578968 0.911843 0.001045
C 0.577153 0.974052 1.236869
O 2.183015 -0.620695 0.537340
C -1.155789 -0.118078 -0.739127
O 1.441985 1.447949 2.092255
C 0.552178 -1.848506 -1.435028
C 1.004262 -0.174173 0.394100
H -1.838718 -0.488120 -1.511626
H 0.111197 -1.877430 -2.439721
H 0.219669 -2.819086 -0.969711
H -1.001384 2.254277 1.526644
H -2.532840 1.438070 -0.056620
H 0.942010 2.137176 2.580584
H 1.637741 -1.913672 -1.548346