17
H8 C5 N4
C -0.173565 -0.365633 0.980777
N -0.672719 -1.379629 2.932028
C -0.440773 -0.403081 -0.543114
N -0.819770 -1.332410 1.664276
C 0.164467 -0.409240 3.465710
C 0.085120 0.521219 -2.822545
N 0.783032 0.491978 2.773115
C 0.297397 0.683547 -1.307228
N 0.600463 0.597962 1.479378
H -1.464250 -0.328273 -0.643968
H -0.976046 0.625770 -3.039208
H 0.431722 -0.436412 -3.215313
H 0.303925 -0.459074 4.555888
H 1.417562 0.604641 -1.095396
H -0.170272 -1.398802 -0.918296
H 0.600265 1.343849 -3.335798
H 0.033414 1.643612 -0.930321