19
H11 C5 N1 O2
C -0.396648 1.013964 -0.005743
N -0.930769 -1.931347 -0.296240
C 0.382899 2.107411 0.605400
C 0.395035 -0.286027 -0.237167
O 1.767415 -0.105825 -0.197758
C 0.001794 -1.482507 0.713806
O -1.668202 0.779975 0.608470
C -0.207508 -1.221307 -1.342046
H 0.597770 -1.773863 -1.728449
H -0.332634 3.045546 0.669011
H 0.739816 1.816981 1.608780
H 0.773074 -2.142992 0.870478
H -1.091770 -2.909066 -0.499780
H 2.078380 0.541588 -0.860669
H -0.811598 -0.763094 -2.125485
H -0.655727 1.393407 -1.061675
H 1.279291 2.480804 0.020322
H -1.440608 0.705952 1.583381
H -0.480004 -1.269585 1.675382