13
H4 C4 N2 O3
N -1.513209 2.072511 -0.581255
C 0.364825 0.264898 0.036275
C -0.996963 -0.064151 -0.393224
C 0.929781 -2.022054 0.400060
C -0.260262 2.495726 -0.091444
O 1.268886 -0.616390 0.397588
N -1.872534 0.890229 -0.719048
O 0.050043 3.665721 0.102945
O 0.640493 1.483904 0.210469
H 0.776812 -2.332481 -0.637692
H -1.364060 -1.077076 -0.508743
H 1.890643 -2.503478 0.763188
H 0.085500 -2.257356 1.020897