17
H8 C6 O3
C -0.950337 1.362958 0.316111
C 3.004682 0.784339 1.314335
O -2.482503 -0.135234 -0.880563
C -0.027924 -0.620462 -0.262906
C 0.973220 0.142437 0.312005
O 2.226303 -0.149244 0.656660
C -1.163550 0.202097 -0.332409
C -2.497316 -1.411808 -1.374446
O 0.433053 1.355944 0.695450
H 3.111247 1.676388 0.682871
H 3.982414 0.387927 1.483509
H 0.257017 -1.623433 -0.662474
H -2.406814 -2.193551 -0.591498
H -1.855899 -1.539839 -2.243599
H -1.509380 2.247720 0.456511
H 2.530485 1.064910 2.196679
H -3.624742 -1.551129 -1.766239