18
H9 C5 N3 O1
C 0.768434 -0.305858 -0.543206
C 1.137606 0.723061 -2.584723
N 1.477469 -0.220855 -1.593785
C -1.444466 0.547585 0.518924
C -1.090771 0.058527 1.952039
O -0.683132 1.298995 -1.420924
N 0.067143 1.413342 -2.580128
C 1.214463 -1.362295 0.506369
N -0.321695 0.446901 -0.435700
H -1.781307 1.596294 0.521844
H 2.089200 -1.819384 0.012329
H 1.803670 0.837822 -3.410475
H 0.490801 -2.103261 0.611075
H -0.159095 0.504445 2.296443
H -0.928948 -1.013930 2.058187
H -2.228247 -0.084778 0.122882
H -1.881219 0.370563 2.603242
H 1.470076 -0.887176 1.365618