13
H4 C3 N6
N 1.107897 -0.089702 -0.731505
C -0.826337 0.032552 0.447080
N -2.440229 -0.107510 -1.057439
C -1.316100 -0.197187 -1.734189
N 0.187983 0.205121 1.351001
C 1.332122 0.128205 0.514399
N -2.114073 0.087540 0.325393
N -0.267925 -0.053899 -0.817976
N 2.583393 0.209782 1.049125
H 3.284064 -0.090642 0.406418
H 2.597860 0.131160 2.003576
H -1.233070 -0.361872 -2.765091
H -2.895586 0.106458 1.009211