21
H12 C7 O2
O -2.275790 1.627754 -0.677479
C 1.026326 -0.623699 0.486158
C 0.414641 0.392857 -0.602229
C -2.094549 0.552228 0.229783
C 1.144194 0.061318 1.958623
C 0.495482 0.025656 -2.075111
C -0.397716 -1.356459 0.325151
O 2.079643 -1.396009 0.100288
C -0.934623 -0.226035 -0.077464
H 0.647949 1.415819 -0.373690
H 0.569641 0.873331 2.040735
H 0.646231 -1.060064 -2.278837
H -0.388816 0.227780 -2.732304
H 0.945730 -0.720501 2.709275
H -0.472948 -2.399235 0.186612
H 2.830584 -0.956127 0.217274
H -2.001681 0.934007 1.307864
H -3.054457 2.015791 -0.397765
H -2.836682 -0.255376 0.153695
H 1.366767 0.622072 -2.551600
H 2.290060 0.244881 2.051002