19
H10 C6 O3
C 0.513043 0.106978 0.429745
C 0.199182 -2.271184 1.323432
O -0.317885 2.544674 0.555719
C 1.001107 1.153049 -1.275973
C -0.506081 1.256847 -1.606714
C -0.491150 -0.926046 1.030440
O 1.174815 -0.314408 -0.855005
C 0.009608 1.416179 -0.116739
O -1.163962 0.221065 -2.110086
H 1.346652 0.265848 1.106236
H -0.536730 -2.935296 1.820930
H -1.278385 -1.084559 0.306401
H 0.574641 -2.680805 0.408994
H -0.862714 -0.487224 1.928154
H 1.837567 1.628629 -1.664641
H -0.534214 -0.514865 -2.035129
H -0.720037 2.214526 -2.076940
H 1.000684 -2.123249 2.080761
H -1.246139 2.529823 0.750375