19
H11 C6 N1 O1
C -0.351839 0.192705 0.203278
C -0.480066 -1.385062 0.245681
C -1.816005 0.251165 -0.240081
C 0.713170 0.754032 -0.786948
C 2.295299 0.847632 1.290840
O 3.400167 1.187317 1.620068
C -1.816907 -1.286957 -0.534274
N 1.943131 1.066237 -0.171624
H 1.617023 0.332097 1.938594
H 2.668989 1.552836 -0.585831
H -0.582009 -1.773180 1.198297
H -0.158165 0.684326 1.154377
H 0.228583 1.634724 -1.269763
H 0.336997 -1.966433 -0.246724
H -2.481117 0.471692 0.610048
H -1.689812 -1.501700 -1.623553
H -2.074239 0.846344 -1.105410
H -2.633142 -1.929016 -0.115582
H 0.879966 0.021267 -1.581404