16
H8 C6 O2
O -1.199560 0.138985 1.478371
C -0.170731 -1.261116 -0.279341
C -0.279236 1.115549 -0.410258
C -0.129034 0.020356 0.594599
C -0.582788 -0.933179 -1.501618
C 1.277771 0.140864 1.312826
C -0.584035 0.511963 -1.709720
O 0.667709 1.133592 -1.474927
H 1.432181 -0.712413 1.989464
H 1.300152 1.046380 1.932807
H -0.641501 2.107352 -0.076440
H -1.234959 0.937185 -2.460962
H -0.052003 -2.248775 0.170826
H -1.108045 -0.522049 2.177050
H 2.081142 0.176180 0.592682
H -0.777064 -1.650898 -2.335371