19
H10 C6 O3
C -0.939996 0.059155 0.822120
C 0.799648 1.808498 -1.147514
C 1.066084 0.350171 -0.846137
O -1.317472 -2.247569 0.122099
C -0.357489 -1.668502 -0.686182
O 2.099607 0.359736 0.229746
C -0.098762 -0.413823 -0.346777
C -1.704651 -1.258647 1.152791
O -0.343276 0.637048 1.855184
H 1.552739 -0.115745 -1.709857
H -1.700441 0.794915 0.428247
H 2.465702 -0.518663 0.346036
H -2.805234 -1.174708 1.145480
H -1.381490 -1.617128 2.139734
H 0.569969 0.728554 1.656076
H -0.059880 -2.349617 -1.464271
H 0.373288 2.360711 -0.313688
H 0.040898 1.894705 -1.980030
H 1.740755 2.370925 -1.403044