25
H16 C9
C 2.182231 -0.065901 -1.216895
C -2.134130 -0.367769 1.123293
C -2.565538 1.214380 -0.865585
C 0.791043 0.311983 -0.674456
C -1.641476 0.806550 0.284472
C 3.030227 -0.688452 -0.146741
C 4.393613 -0.971761 -0.702551
C -0.250964 0.490625 -0.247073
C -3.491123 -0.060143 1.846841
H 3.047863 -0.090371 0.704427
H -1.491590 1.706065 0.947593
H -1.350731 -0.616110 1.837211
H -3.289891 0.827102 2.508164
H -2.704823 0.366864 -1.547615
H 2.515190 -1.642859 0.139741
H -2.156492 2.039954 -1.484180
H -3.711536 -0.910718 2.491038
H 2.002543 -0.700639 -2.109961
H -4.263595 0.188262 1.231368
H 4.909976 -0.019756 -1.013865
H 5.045253 -1.432852 0.082404
H 2.591996 0.891900 -1.592330
H 4.363169 -1.603985 -1.584119
H -2.269217 -1.186454 0.460431
H -3.551974 1.514079 -0.471567