19
H10 C6 O3
C 0.616841 1.182916 -0.619178
O -1.861650 -3.523926 0.348094
C -0.269140 -0.545443 1.111360
C 0.242672 2.365316 -1.469066
O 0.262721 -2.622719 0.280531
C -1.147691 -2.669073 0.581375
C 0.922255 -1.547403 0.860455
O -1.371276 -1.448943 1.173694
C -0.593564 0.551342 0.150397
H -1.093769 1.345740 0.625915
H 1.609961 -1.201349 0.135159
H -0.276767 3.163850 -0.937512
H -1.295712 0.163824 -0.579862
H -0.509248 2.010511 -2.334182
H -0.188487 -0.110534 2.136187
H 1.109502 2.814803 -2.030878
H 1.412567 -1.813540 1.738217
H 1.335838 1.499996 0.091923
H 1.094919 0.384637 -1.262590