20
H11 C7 N1 O1
C 0.505689 -0.960895 1.193210
N -1.211071 0.559329 -1.388994
C 1.384517 0.233570 0.724905
C 0.718788 1.389667 0.036306
C -0.706864 -1.274866 0.319658
C -1.488045 0.041437 -0.016644
C 1.693762 0.493343 -0.722643
C -0.760013 1.282605 -0.202876
O -0.230223 -1.885666 -0.846352
H 1.253950 -0.102035 -1.448328
H 0.220563 -0.735747 2.202578
H -0.985171 -2.288859 -1.325463
H -1.326069 2.204695 -0.046974
H -1.393705 -1.868208 0.961675
H 2.664048 0.929399 -0.918850
H -2.015841 0.903899 -1.760987
H 0.979091 2.389597 0.246155
H 2.158808 0.511660 1.436938
H -2.550582 0.059622 0.322040
H 1.088364 -1.882517 1.234616