17
H8 C5 N2 O2
O -1.156580 -1.245857 -0.917682
N -2.412143 -0.959756 1.134179
C 0.579731 0.486624 1.135605
C -1.487541 -0.648187 0.275879
C 1.149386 -0.752975 -1.522962
O 1.164292 -0.497738 1.498866
C -0.503998 0.542852 0.070012
N 0.863807 1.712140 1.709773
C -0.139572 -0.167342 -1.257486
H -2.802626 -1.873713 0.809208
H -0.565265 0.414670 -2.092659
H 1.487173 -1.349890 -0.692983
H 1.187787 -1.418089 -2.375098
H 1.480430 1.737450 2.467425
H 1.891208 0.070498 -1.754343
H -0.956347 1.494301 -0.052252
H 0.220283 2.455049 1.564544