16
H7 C7 N1 O1
C -1.557836 -1.741489 -0.308241
C 1.699595 -0.390699 -0.092112
C -0.250422 1.326304 0.288800
C -0.543624 -0.726706 -0.042916
C 0.961907 0.861369 -0.527309
N -2.403012 -2.544616 -0.552562
O 0.705708 -1.426716 0.154396
C -0.414494 0.479959 -0.994626
C -0.784175 0.257684 1.165106
H 2.224558 -0.299712 0.903703
H 1.491756 1.612861 -1.082918
H -1.862463 0.357728 1.386525
H -0.278125 -0.060525 2.039621
H -0.942768 0.639791 -1.892022
H 2.442842 -0.725624 -0.809307
H -0.489441 2.380380 0.363838