21
H12 C8 O1
O -0.196121 -1.568486 -2.251237
C -1.486954 0.242969 0.017829
C -1.300664 -1.240902 0.358258
C -0.239241 -0.192331 0.798921
C 1.970087 0.728062 -0.156467
C 0.633852 0.183656 -0.385142
C 0.111803 -0.287037 -1.755458
C 0.068600 0.141085 2.235018
C -0.663535 0.798015 -1.113359
H -0.753118 1.768929 -1.581262
H 0.843729 0.179653 -2.553927
H -1.958490 -1.541550 1.209753
H -0.788099 0.019716 2.883240
H 0.921529 -0.477487 2.556917
H -2.366885 0.777124 0.354543
H 2.424204 1.222273 -1.095232
H 2.665758 -0.040967 0.066761
H -1.177944 -1.492227 -2.275917
H 2.042720 1.572134 0.599992
H -1.080058 -1.990895 -0.262890
H 0.328837 1.198283 2.349672