16
H8 C6 O2
C 1.330220 -0.455320 -0.956710
O 0.374732 -1.103152 -0.098829
C -0.667147 -1.300156 1.936727
C -0.017543 -0.332777 1.013470
C 0.213442 1.042795 -2.836378
C 0.722133 0.325757 -2.001975
O -0.748715 -2.520596 1.774760
C -0.948266 0.884991 0.636678
H 0.859352 0.112378 1.502732
H -1.383984 1.334398 1.533868
H 1.890642 -1.268579 -1.407945
H -1.767160 0.555768 -0.027196
H -1.139542 -0.756930 2.848049
H -0.416536 1.668197 0.051161
H 1.999409 0.145366 -0.339118
H -0.301027 1.667856 -3.629264