18
H9 C5 N1 O3
O 1.962252 0.350951 1.024757
N -0.151194 -0.179299 0.797821
C -1.410146 -0.608588 0.201370
C 3.284827 0.406770 0.530159
C -2.539116 0.521459 0.074389
O 1.352104 -0.269857 -1.083530
C -1.555674 -0.582991 -1.319668
O -2.054157 0.788126 -1.241522
C 1.024488 -0.058089 0.173840
H -1.739597 -1.492267 0.752653
H 3.379962 1.206815 -0.318158
H 3.644711 -0.549369 0.164014
H -3.557372 0.173902 0.054330
H -0.194600 0.073167 1.735581
H -2.377302 1.314495 0.735237
H -2.383303 -1.234716 -1.700288
H 3.956673 0.772487 1.357411
H -0.642524 -0.632981 -1.938442