18
H9 C6 N1 O2
C 0.500467 -1.387812 -1.403294
C 0.162229 0.069230 -0.976818
C 0.093525 0.418358 0.530521
C -1.591435 1.933618 1.511222
N 0.143295 -2.525375 -0.528562
C -0.277039 1.890456 0.729934
O -0.109604 0.894390 -1.823635
O 0.347454 -0.417549 1.361803
C 1.593030 -2.161087 -0.765842
H -0.121951 -3.285259 -1.093646
H -0.245636 2.432018 -0.178172
H 2.137127 -2.768601 -1.532592
H -1.785778 2.975140 1.820713
H -1.582986 1.309627 2.411489
H 0.415977 -1.477354 -2.477989
H 0.651871 2.239599 1.360626
H -2.403993 1.637092 0.865811
H 2.073465 -1.776460 0.188456