22
H14 C8
C 0.644244 0.581036 0.800349
C 7.808597 0.346691 6.930102
C 6.712904 0.289142 -5.356837
C -4.144572 -6.071176 0.456356
C 6.114279 3.957641 -10.117867
C 6.424792 -3.147945 0.878513
C -7.379696 0.214065 3.152817
C 0.079966 -4.487882 10.024771
H -6.168409 -3.141288 2.989636
H -0.585660 5.956745 -0.624130
H 4.889570 6.066905 -4.438654
H -0.503336 -6.497453 -3.179093
H 6.117168 -0.042704 11.373602
H -2.408664 -6.037350 0.866154
H -0.587704 -1.307242 -5.485726
H -4.022653 -1.700423 -7.654566
H 6.169678 -0.392269 -5.797730
H 0.484730 7.122770 1.763545
H -0.400343 2.569473 -4.908154
H -1.408478 2.759928 6.042235
H -6.036059 -1.936052 0.546542
H -9.243700 4.101056 0.367605