20
H11 C7 N1 O1
C 0.169521 1.786008 -0.372348
N 0.779452 1.517757 -2.613976
C -0.014303 -0.372801 -0.210930
C -0.580574 -1.073444 -0.220440
C 1.126310 0.671190 -1.144477
C 0.907085 0.054483 0.320404
C 1.618700 -1.096388 -1.183525
C -2.376935 -0.877754 2.030513
O -1.294531 1.257749 0.488012
H 0.686846 -1.857448 -1.790699
H -1.724027 -1.902365 1.676724
H 2.798237 -1.082981 -0.911338
H 0.262427 3.078074 -0.876995
H 0.164278 -0.205672 2.653914
H -1.924281 -0.650786 1.953070
H -0.288247 -1.846410 0.483417
H 1.787917 0.692476 0.946754
H 1.048087 0.378949 -3.437990
H -1.910933 1.427727 1.199499
H -0.968050 -0.706110 -0.815646