19
H10 C7 O2
C 1.125327 0.561589 1.754182
O -1.374174 -0.662336 -2.075748
C 0.406621 -1.761507 -1.654105
C 0.280545 0.110975 -0.957458
C -0.876403 1.273828 -0.254892
C -0.711757 0.029096 -1.197131
O 1.195570 0.352345 -1.769920
C -0.460415 0.804952 1.247694
C -0.362422 -2.822331 -1.086771
H -0.510560 2.362293 0.785615
H 1.451248 1.214239 1.058402
H 1.158636 0.734021 2.870693
H 1.645612 -0.349626 1.953573
H -1.851325 1.576745 0.420636
H -0.571060 2.321702 -0.935471
H -1.488437 -2.861168 -0.628261
H -1.016517 0.449201 1.589778
H 1.431502 -1.725689 -1.792799
H 0.562677 -3.565856 -1.221368