20
H11 C7 N1 O1
C -0.515366 -0.731383 -1.923760
C 0.681298 -1.053686 1.283099
C -0.759218 -0.561509 0.953260
N -1.952890 0.619601 -0.803687
C -0.937113 0.616109 0.312305
C -0.800773 0.460846 -1.025700
C 1.472584 -0.912664 0.165586
C 1.033521 0.333504 0.251741
O 2.435432 -0.860240 1.923542
H 1.219918 1.202482 -0.194910
H 0.550038 -1.900607 1.910060
H 1.746386 -1.309484 -0.706457
H -1.615360 -0.835565 -2.438505
H -0.965608 1.645366 0.896028
H -0.246086 -1.690819 -1.644629
H -0.891992 1.605402 -1.667914
H 2.814369 -1.117590 0.825920
H 2.087479 0.776833 1.024946
H -2.767314 1.119271 -1.195395
H -1.426513 -0.634916 1.506732