17
H8 C8 O1
C -1.681574 1.840776 -0.377991
C -0.251265 0.873869 1.455014
C 0.289705 -2.411989 0.369051
C -0.296460 1.041917 -0.537121
C 1.248286 -1.775826 -0.674224
C 1.197995 -0.032552 -0.445672
O -0.629387 2.521822 0.828955
C -0.053531 -1.204742 0.022888
C 0.512820 0.161515 0.631961
H 0.882044 -2.326596 1.641908
H -0.208551 1.266916 2.310606
H 1.182644 -2.121204 -1.453610
H -0.033489 1.020411 -1.738525
H -0.258329 -3.393754 0.004818
H 2.399288 -0.054773 -1.009014
H -1.578144 2.637056 -1.199221
H -2.398432 1.395407 -0.047439