20
H11 C6 N1 O2
C 0.370154 -0.727319 0.560984
N -2.196965 0.949959 -0.428384
C 0.647435 0.014472 -0.872774
O -0.417896 -1.736662 0.649974
C -1.654335 -0.370174 0.559043
C -0.418408 0.540121 -0.105218
O 0.740187 0.950412 -1.543335
C -0.269227 1.456227 0.834514
C 1.850096 -0.841059 -1.370984
H 2.650981 -0.727641 -0.597291
H -1.127029 -2.099483 0.156787
H -2.752594 0.405957 -0.665385
H 0.406903 1.085655 1.988340
H -1.947211 2.121504 -0.882786
H 2.411384 -0.676015 -2.283689
H 0.326925 2.080659 0.738471
H 1.581311 -1.817494 -1.397797
H 1.108561 -0.554782 1.298499
H -1.412654 1.663493 1.544892
H -2.469204 -0.591693 1.296819