17
H8 C5 N2 O2
O -0.706151 -3.357105 -1.711135
C -0.344905 0.910138 0.242117
C -1.072986 -0.966417 0.301929
N -2.048398 -0.716681 1.164942
C -0.007049 -0.312880 -0.225673
O 1.610694 -1.862159 1.437276
N -0.886261 -0.922935 0.588288
C -0.215208 -2.443937 -0.784334
C 1.316011 1.201058 0.443805
H 1.495896 2.109978 0.061884
H 1.552949 0.325618 -0.715651
H 0.052289 1.677403 1.140274
H -1.468247 1.337227 -0.750987
H -0.272962 0.140592 -1.472955
H 0.138231 -2.268449 -0.736424
H -1.788168 2.128252 0.757539
H 1.514087 1.578462 0.955054