17
H8 C5 O4
C -0.127780 -0.510106 0.072465
C 0.763453 0.637776 -0.057607
C 0.136531 2.097551 -0.209106
O 0.674643 0.066757 3.456062
C -0.917757 -0.612094 -1.233942
O -0.864176 -1.489148 -0.008013
C 0.158689 -1.526964 1.239569
O 1.021047 -0.167005 2.457965
O -0.484702 -2.127455 2.408222
H -2.001752 0.184083 -0.945528
H -0.001086 2.681694 0.434741
H -1.146584 -0.192368 -2.174514
H 0.250922 2.500853 -0.826082
H -0.002120 -1.479318 -2.109045
H 0.638200 -2.313735 1.278641
H 1.251001 0.438256 -1.188509
H 1.617451 1.465578 0.730467