14
H6 C5 N2 O1
C -0.143154 0.158532 -0.995572
O -0.395840 1.043429 -2.059376
C -0.225098 0.157933 0.411701
C -0.322734 0.645370 1.335713
C -0.380527 1.371522 1.493572
N 1.326582 -0.979505 -1.589751
N -0.920268 1.119342 2.347858
C 0.131984 -0.806163 -1.657427
H -0.535202 -1.150662 -2.785525
H 1.553700 -2.101522 -1.528321
H -0.674945 2.205720 2.972803
H 0.836532 -0.826593 1.476910
H -1.465880 -1.005557 0.125353
H 0.827908 1.798479 1.104527