21
H12 C7 O2
C -0.958986 0.419595 -0.360184
C -0.255039 1.019805 0.171450
C 0.242915 0.333852 0.730388
O -0.705826 2.029356 -0.892079
C 0.569882 -1.823048 -1.773305
C -1.818277 -1.231519 0.000835
O -1.290256 -1.644645 0.058611
C 1.025790 -0.421137 -0.878224
C 1.809895 0.758416 1.984176
H -1.847358 0.749804 -1.812024
H -2.531892 0.267616 -0.191979
H 0.875762 0.591602 2.846251
H -0.307529 -1.477549 1.665874
H -0.945225 -1.940398 -1.823379
H 1.995187 0.773248 1.275059
H 0.117534 -1.676028 -2.420210
H 1.369372 0.186991 2.374502
H 1.239035 -0.917521 -0.188033
H 1.540730 2.130820 0.947483
H 0.991409 -2.536230 -1.165020
H 1.149795 -0.249469 -1.966803