17
H8 C6 N2 O1
O -2.789176 0.912083 -0.841979
C 0.020627 0.712923 -0.722797
C -1.663936 -0.909612 0.473141
N -0.464903 -1.525405 0.807882
C 1.728344 0.415784 -0.115595
C -2.124766 0.328753 0.062080
C 1.611976 -1.114458 0.095318
N 0.471167 1.583770 -1.006060
C 0.590024 -1.064785 -0.092009
H -1.542762 1.545196 0.424840
H 2.089817 -2.432874 1.733186
H 1.983658 0.903604 0.488493
H 2.749672 -1.319583 -0.538751
H -1.374321 -2.115944 1.056246
H 1.529668 2.685858 -1.919356
H -3.465889 -0.443016 0.919086
H 1.517895 -0.979354 -1.956811