18
H9 C6 N1 O2
C 0.830558 1.202912 -0.918462
N -1.137083 0.686226 0.874738
C -2.094775 -1.152335 1.022552
C 1.175964 -0.896390 0.144718
O -0.809419 -0.742182 -1.042592
C -0.444741 0.963205 -0.451142
C 1.008584 0.483367 0.313615
O -1.077196 -0.733770 1.557483
C -0.990926 -0.019548 -1.054299
H 1.055622 -1.775904 1.334574
H -1.217151 1.204002 1.504968
H 0.889201 -1.743515 -0.007214
H -3.196331 -1.464904 1.078535
H 1.522701 1.247036 -1.753228
H 1.788007 -0.820404 -0.856778
H 1.749758 0.392548 1.134448
H 1.029916 2.475300 -0.695004
H -0.255347 1.477273 -2.341131