15
H6 C5 O4
O 1.298583 1.625264 1.633582
C 1.007410 0.623625 0.744402
O -1.076166 0.955097 -0.741881
C 0.196255 -1.058634 -0.814819
C -0.051573 0.387763 -0.108603
C 0.194990 2.303041 1.072468
O -1.199931 -2.984873 -0.302727
C -1.047639 -1.725627 -0.506202
O 0.506410 -1.809079 0.158235
H -1.988495 -1.134504 -0.458979
H 0.841247 -1.298772 -1.787195
H 0.542579 2.597932 -0.220488
H 1.933526 0.065827 0.557237
H 0.241909 3.412938 1.231587
H -0.765719 2.066007 1.723626