18
H9 C7 N1 O1
O 0.919355 2.610806 0.028529
C 0.767961 1.384877 -0.301999
N -2.458247 -2.286232 1.055331
C 1.864956 1.276701 0.830507
C -1.614615 -2.132055 0.472911
C -1.193906 -0.020717 -1.840647
C -0.434585 -0.726295 0.507203
C 0.885719 0.005589 0.450633
C 0.238199 0.052029 -0.682037
H 2.640424 0.924931 1.066406
H -1.593909 -3.548986 0.370684
H -1.072686 1.912983 0.053993
H -0.178583 -1.171738 1.660055
H -2.172824 -0.001281 -1.314697
H -0.954859 0.251803 -2.731224
H 2.304508 -0.920320 -0.041079
H 1.386289 0.994676 2.084020
H 1.277259 0.744390 -1.727036