21
H12 C7 O2
C -0.195288 -0.546112 -1.329126
C -1.345745 -0.501661 -0.175613
O -0.913682 0.274786 -1.161619
C 1.787052 1.423310 -0.216393
C -1.405415 1.154875 0.232549
C -0.556797 -1.402305 0.960402
C 0.527969 -0.283932 1.007747
C 1.097708 0.059668 -0.467679
O -2.190901 -1.395587 0.076845
H 1.524576 -0.896487 1.420685
H 2.705693 1.405648 -0.649603
H 0.209747 0.454869 1.867416
H -0.340593 -1.968192 1.686155
H -0.618184 -1.816222 -1.730767
H 0.295125 -0.691373 -2.175835
H -1.798091 -2.762176 0.522534
H 2.131244 -0.551774 -1.083837
H -2.066534 1.018870 1.085268
H 2.043786 1.708652 1.053353
H -1.366547 2.021439 0.028352
H 0.944899 2.269712 -1.193828