19
H10 C8 O1
C -0.139092 -0.258341 1.926804
C 0.137298 -0.934659 -1.198163
C 0.095190 -0.887960 -0.175437
C -0.228498 0.100149 1.632425
C -1.290112 0.681294 0.363266
C 1.888617 0.046533 -2.048628
C -2.186501 -0.037956 -0.479847
O 0.213337 0.958258 3.463230
C 1.007578 -0.369477 -1.241666
H 1.242752 1.539051 -2.466452
H -0.672799 -0.467274 3.280091
H 2.115442 -1.251062 -1.734915
H -0.513754 -0.986847 -2.886687
H -0.964882 1.802187 2.819453
H -2.693676 -0.140426 -1.165025
H -1.386933 1.231557 0.343930
H 0.410223 -2.267675 -0.729343
H 1.457030 -0.517021 1.985544
H 1.987942 -0.015480 -2.799234