12
H3 C4 N3 O2
N 1.294253 -0.818559 0.586952
C 1.592557 -0.265952 1.684251
C 0.718848 -0.154916 -0.978042
N 2.616499 0.355973 1.996506
C -0.014572 -1.022012 -0.721481
O 0.929035 1.924001 -1.994224
O -1.095911 -0.553798 -1.838354
C -0.233439 0.902017 -1.670118
N -0.162263 2.117187 -1.545435
H 0.946002 -0.928022 2.449907
H -0.424569 -1.872046 -0.292877
H 2.088068 -1.594427 0.385703