19
H10 C8 O1
C -0.574338 0.532655 -0.715444
C 0.419799 -2.265501 0.800210
C -0.859880 -0.419087 0.226710
C 0.571299 -1.199414 -0.314004
O -1.816286 1.013146 0.636216
C 1.220363 0.309257 -0.895510
C -1.170712 2.698386 1.739803
C -1.392226 1.332778 0.880509
C 0.250563 -0.635422 -2.070158
H -0.594311 -2.718901 0.128687
H -1.338287 -1.187970 0.787218
H 0.663582 2.110003 -1.264705
H -1.450373 2.916194 2.159655
H 0.336238 -2.480251 1.539558
H 1.406624 -0.017495 -2.634659
H 2.275347 0.221682 -0.968547
H 1.515772 -1.530468 0.063507
H -0.510427 0.892843 -2.414162
H 1.333529 1.150142 0.319143