18
H9 C7 N1 O1
C 0.801539 0.336230 -0.749026
C 1.882790 1.446263 0.592303
O -2.280876 -1.229893 0.473133
C -1.584857 -0.315158 -0.231620
C -0.342432 0.061792 1.567058
C 1.169193 1.366852 0.364236
C 0.424311 -0.866488 -0.259806
C -0.302469 0.940275 -0.553325
N -0.659524 -1.731116 -0.161975
H -0.218884 -0.177514 2.122134
H -2.785457 -3.007005 -1.165460
H 3.026124 1.751615 -0.561489
H 0.995581 -0.819128 -0.319015
H -0.761764 1.702626 -0.765657
H -1.606326 -0.459203 -2.004936
H 0.292299 -1.533013 -1.539371
H 0.756745 2.255052 0.438777
H 1.921319 1.102051 2.809499