19
H10 C7 O2
C 1.514351 0.258999 -1.576956
C -1.141839 0.742254 2.186144
O -0.764906 -0.213325 2.722857
C -0.255563 0.042352 0.471225
C 1.287935 -0.955683 -0.705094
C 0.855680 -0.941793 -2.489984
C -0.233475 -0.255304 1.714412
C -0.954370 0.694667 -0.429169
O 0.888280 -1.647417 -3.098619
H -1.189607 1.964951 2.048095
H -2.221402 -0.239797 2.403385
H 1.731552 -0.890054 0.215797
H -2.099092 1.459195 0.516576
H 1.884876 0.916192 -1.959875
H 0.179578 -0.706247 -3.371533
H 1.793514 -2.118543 -1.127240
H -0.784035 2.170974 -0.208645
H 0.347772 1.487819 2.363415
H -1.535363 -0.298333 -1.004692