13
H4 C4 N3 O1 F1
C -0.313043 0.568475 -1.060685
C 1.665750 1.450552 -0.504611
C -0.271151 -1.366805 1.052579
F -1.088078 1.228651 -0.515999
C 0.908681 -0.310605 0.093371
N -0.867730 -0.345960 1.549362
O 1.354422 -1.333578 0.791797
N 1.077960 1.074309 -1.213865
N -0.482233 0.150654 0.274038
H -0.436285 0.457019 -2.122621
H -2.061273 -0.994945 0.979226
H -0.514105 -2.297103 1.567359
H 2.163985 2.460459 -1.042923