20
H12 C7 O1
C 1.907754 -0.217498 -2.341839
O 1.093144 0.474750 3.656244
C -2.903455 -0.884525 1.362630
C 0.453050 -2.928053 -1.262546
C -1.448364 0.165137 -0.421242
C 3.097644 -0.810827 -0.573417
C -1.045710 1.216624 -1.245171
C -1.925231 2.826104 -0.411834
H 1.518786 -3.049961 1.671775
H -0.779332 0.991166 -0.521185
H -4.268009 1.804115 -4.309044
H -2.038617 4.419765 0.880149
H 2.470917 2.518577 -2.918230
H 3.688283 -0.225098 1.210627
H 0.214879 0.064290 1.920722
H 0.919623 -0.638589 -1.512595
H -2.727705 -2.098121 -0.597587
H -1.867529 1.828174 3.331784
H -1.545869 -1.537091 -1.945681
H 0.253867 -1.790847 0.914249