17
H8 C6 N2 O1
C 2.939939 -1.195818 0.841520
C 3.323615 -0.608333 -0.069118
C -0.696032 0.474794 0.523230
C -1.932849 1.018311 1.148893
N 2.823938 -2.096328 1.511606
C -0.203156 0.549229 -0.722887
O -1.433160 0.430585 2.357715
C -1.265602 -0.301626 -1.413517
N -1.279843 -0.187088 1.557009
H 3.753710 -0.306102 -0.475303
H 1.844096 -2.544672 1.830669
H -1.371415 -0.370065 -2.822690
H -2.537287 1.783469 1.462991
H -0.340366 1.394067 -1.335707
H -2.367798 -0.651709 -1.320582
H -1.643399 2.194298 -0.039262
H 1.858600 0.243363 0.405518