23
H14 C9
C -2.209388 0.143499 -0.153452
C -0.448168 0.495318 0.032233
C -0.129248 -0.970950 -0.490405
C 1.532759 -0.947865 -0.135217
C 1.686615 -0.243979 1.011393
C -0.248842 -0.489227 1.022292
C -1.157089 -0.476019 -1.444162
C 0.974591 -1.061540 1.844151
C 0.213273 1.077427 -0.360988
H -3.662103 2.049682 0.864247
H 1.592626 -2.248329 -0.222981
H -1.845055 2.511254 1.138690
H -1.000780 -1.317650 -1.177075
H 1.335891 -1.053181 2.231437
H -1.969618 1.238908 -1.525086
H -0.074280 -0.967201 1.824085
H 2.646589 0.579530 0.041145
H -2.457807 -0.031766 0.351779
H 2.066817 0.769070 1.526907
H 1.302195 -0.216039 -2.060176
H -0.212438 0.808518 -2.114296
H 2.278980 -1.185691 -0.472584
H -0.046327 1.977855 -0.295741