19
H11 C7 N1
C -1.706124 -3.186027 2.209059
C -0.586728 -1.999326 -6.800372
N 1.120612 -1.207407 9.051962
C 1.404057 1.749215 -0.415639
C -0.574534 -1.389535 1.620469
C 4.141901 -0.543101 3.947238
C 4.828069 2.053895 0.149958
C -3.772670 1.085360 -0.651241
H 8.633142 1.023666 0.316018
H 3.170922 4.479498 -2.516534
H -3.147904 -4.098575 -0.233106
H -0.896902 0.528708 1.091068
H -6.429116 0.780988 -7.900667
H 3.063233 5.680533 -0.260329
H -3.766128 1.992120 -0.114994
H -5.325421 -0.986539 -2.304501
H 2.206132 3.921764 0.773559
H 0.402666 -8.034607 8.084960
H -2.540195 -2.538062 -6.488472