17
H8 C6 N2 O1
C 1.347465 -0.180475 0.321575
C -0.831549 -0.208220 0.387313
O 1.517435 0.448185 1.884566
N -0.882834 -2.933240 -2.045279
C -1.763639 0.384996 0.439714
C 1.647071 0.225944 -1.122775
C -0.691841 -1.957537 -1.422279
C 0.407490 0.785092 1.115917
N 0.228945 -1.134072 0.539445
H -1.830946 1.239706 -0.190372
H 1.854423 0.245484 -1.691868
H -0.060387 1.554058 1.390500
H 2.308176 -0.560856 0.695450
H -0.886170 -1.027130 -2.148413
H -2.349642 0.653124 1.580277
H 2.425517 1.069123 -0.990964
H -2.455757 -0.788462 0.290844