20
H11 C6 N3
N 0.686369 -0.552084 0.383898
C -1.280079 0.878628 -1.316695
C 0.512766 -1.041595 -1.141802
C 1.025825 -1.412096 -0.092291
N 1.475198 0.890751 0.730425
C -0.650544 0.595589 0.721804
N -0.546945 2.082012 1.038907
C 0.454402 -1.322692 1.094033
C -0.927347 2.166480 -0.385033
H 1.438718 -2.869529 0.841514
H 1.925150 1.334677 -0.789639
H 0.439714 -1.479856 -2.013679
H -1.323519 -0.935689 -0.356799
H -2.201271 0.540427 -1.612541
H 1.356810 -0.147889 -1.810424
H -0.398282 -1.256029 -1.229401
H -0.927468 2.595980 0.479264
H -0.064525 -1.769734 2.079833
H -1.277406 0.591100 2.031301
H 1.754615 0.753764 1.473887