12
H3 C6 F3
F -0.366160 2.518698 0.467929
C 1.063681 -0.892077 0.521357
F -1.612784 0.688171 1.798659
F -1.289567 -2.034508 -0.065509
C 0.751254 0.076556 -0.939379
C -0.587966 -1.704166 -1.566614
C -0.658691 0.463607 -0.167530
C 0.732728 -0.605777 0.615813
C -0.665664 1.290439 -0.307563
H -1.146263 2.657265 -1.374191
H 0.999265 -1.940595 -1.248698
H 0.534400 -1.686576 1.771694