14
H5 C4 N5
N 0.629478 0.192857 -0.256438
C -0.703510 0.596836 0.661481
C -0.145564 -1.402480 1.127006
N 0.605355 -1.238214 -0.154117
N -0.818779 -3.146878 -2.053677
N -0.479923 2.333814 0.249057
C -0.375570 -1.063018 -0.039131
C -0.347089 -0.570696 0.822297
N -1.225467 -2.478348 -1.659887
H 0.147599 2.673528 -1.123677
H -0.320184 0.552580 1.371162
H -0.363782 -1.655296 2.215415
H 1.745856 0.558722 0.149967
H -0.987735 2.865658 -0.567163