17
H9 C5 N1 O2
C 0.278932 0.688957 -0.761102
C -0.267226 -1.793645 0.973116
C -0.464576 -0.523039 1.185377
O -1.129461 -2.710570 0.389258
C -0.954505 0.904585 -0.612057
N 1.003759 -0.187304 -1.275313
C 0.803984 2.222692 -1.070962
O -1.738832 1.161812 -1.456125
H -0.510370 -1.000319 2.434984
H 0.800937 -2.109066 1.369786
H 1.270192 2.451690 -0.663090
H 0.592242 3.036145 -1.992839
H -0.740096 -2.525650 -0.220501
H 1.929924 0.102989 -1.309889
H 0.206603 0.446069 1.525265
H -1.540023 -0.189881 1.234553
H 0.398157 -0.868624 -1.463743