19
H10 C6 N2 O1
C 0.038114 -0.315470 2.202836
C 0.372857 0.120392 -2.175316
C -0.732331 -0.788318 4.349656
O -0.095254 1.265326 0.497559
C 0.391382 -0.259748 0.229350
N 2.520877 1.223078 -1.905782
C -1.766204 0.310402 -1.185409
C 1.287181 0.044067 -2.354539
N -2.999535 -3.513009 3.810861
H 2.315247 0.194007 -3.737340
H -0.300517 0.055061 -2.666025
H -0.566849 0.565791 4.098303
H -1.610090 -0.777966 -2.743740
H -0.626184 2.113889 -0.377598
H -1.721761 -2.059731 3.540020
H 0.345166 -2.607229 4.469893
H 0.789647 1.237939 -1.620563
H 2.032992 -1.260216 -3.769691
H 0.848798 2.536293 -1.165378