13
H5 C4 N3 O1
C 0.209390 1.196045 -0.213910
C 1.050446 -1.216746 0.350816
N 0.822006 -2.972836 0.220337
C 0.772992 -0.625626 0.002301
N 0.035083 2.109164 -0.183703
C -1.236719 1.115804 0.054146
N 1.337623 -3.801023 0.203620
O 1.185369 -1.091901 1.211167
H -1.770696 1.204708 0.023485
H -0.764043 2.712356 -0.315351
H 0.278304 2.685282 0.517557
H 1.780472 -4.283762 -0.415894
H 1.145162 2.098836 -0.958637