20
H11 C7 N1 O1
C 0.714074 -0.641338 0.572708
C 0.376292 0.266020 -0.609453
C -0.691188 0.141423 0.209400
C -1.021984 0.089319 -1.040640
C 0.770372 1.465073 -0.797921
N 1.116624 -0.390249 3.309131
O -1.708367 0.598922 -0.150980
C 0.531989 -0.706822 1.941268
C -0.796953 -1.544680 0.646016
H -1.263947 1.458978 1.051440
H 1.699404 -1.061724 0.265910
H 0.069378 -2.112154 2.323079
H 2.010638 -0.437094 -1.904317
H -2.316527 0.040365 -1.242208
H -0.088083 -0.615871 -1.693856
H -0.295382 -2.743644 0.375604
H 1.362071 1.939639 0.659969
H 2.432504 1.534547 -1.533473
H -1.795875 -1.634408 0.569016
H 0.603830 2.075355 -1.897987