20
H11 C7 N1 O1
O -2.804922 1.075758 -0.107673
C -0.655652 0.808292 0.607643
C 0.065261 -1.504928 0.029950
C -0.727384 -1.158090 1.492175
C 0.712793 1.397825 0.188257
C -1.939763 0.419079 0.171351
C 1.476945 0.589427 -0.573497
C 0.226322 0.421825 -0.668210
N -0.528669 -1.696220 -1.455083
H -1.159945 -0.971672 1.893822
H 0.912882 0.847260 1.249026
H 0.466471 -1.730745 -1.623835
H -0.988196 1.363978 1.583272
H 0.918949 2.361531 0.453330
H -2.105536 1.448617 -1.063533
H 0.278927 -2.309659 0.844971
H 2.405926 -0.165383 -1.260979
H 1.987025 -0.143380 0.073892
H -1.421560 -1.736893 -1.438179
H 1.691905 1.591168 -1.347350