25
H16 C8 O1
C -1.498259 -1.630545 -1.162859
C -0.355509 -0.470849 0.374630
C -1.767383 -0.237726 1.088810
C -0.264566 0.864917 -0.055372
C 0.228080 0.599908 -0.933788
C 1.537142 2.247887 -0.471138
C 2.360513 0.340153 -0.277782
C -2.145328 -1.407532 -0.462968
O -0.213643 0.695134 1.151419
H -2.364614 -1.574457 1.239202
H -3.041194 -0.240516 0.060128
H 1.208127 2.505311 0.989476
H -1.096493 0.931037 -0.841553
H -0.459306 -1.892502 1.867619
H 2.552739 -0.448761 0.425881
H 1.760596 1.920256 -1.994822
H 2.352888 2.641810 -0.853057
H -0.128833 -2.335364 -0.191454
H 3.049048 0.780765 0.071720
H 0.597007 3.284113 -0.078201
H -2.318177 0.419776 1.174228
H 2.556509 -0.001984 -0.488837
H -1.398131 -2.863883 -1.305863
H -0.005954 0.307777 -1.732542
H -1.799832 -1.575398 -1.006457