14
H5 C5 N3 O1
C 1.251372 -0.538987 1.181808
O 0.216683 -2.089516 -1.349090
C -0.985917 0.178871 -1.165766
N 2.571639 -0.285805 1.870979
N 0.000606 -0.739519 0.867886
N -1.974154 -0.068648 -2.293720
C -0.074530 -0.948064 -0.969826
C -2.372764 0.214768 -1.299023
C 0.000539 -0.473055 0.122964
H 3.488914 -0.543380 1.454136
H 2.632515 -0.062921 2.800785
H -0.652800 1.202798 -1.457022
H -3.238420 0.459063 -0.897127
H -2.795703 0.059537 -3.119470