22
H13 C7 N1 O1
C 0.419906 -3.072655 -1.485675
C -0.942768 -0.360525 -0.051869
C -0.729763 1.256009 2.309398
N 2.734224 1.076258 -0.337277
C -0.209246 -0.700928 -0.851899
C 0.703813 0.650860 -0.486055
C -0.813558 0.773932 -0.314875
C -0.155371 -0.682022 1.504264
O -0.092793 0.883315 2.630787
H 2.655887 1.783240 -1.156928
H 0.214749 2.314615 -1.347881
H -1.334235 1.979758 -0.888554
H 0.378895 -2.462315 -1.824531
H -1.371952 -1.205173 -0.556184
H -2.338699 1.142720 -0.727206
H -0.324352 0.081689 -2.076974
H -0.773203 -1.544922 1.707911
H 0.817954 -2.070673 0.734226
H 1.831923 1.086267 0.542869
H -1.654761 1.771966 2.452259
H -0.735476 -0.558103 3.085622
H 0.047161 -4.389511 -1.624580