16
H8 C6 O2
C 0.020657 0.550485 1.100960
C -0.140692 -0.768568 0.755556
O -1.801412 2.157642 -2.317609
C -0.191963 -2.292838 0.959760
C 1.437148 1.366045 0.369641
O 1.314084 1.362478 -0.988373
C 0.175680 2.485264 -1.188468
C -1.461436 -1.338043 -0.451935
H 1.651592 1.069358 1.250805
H 3.078034 -1.963573 1.855093
H 0.158681 2.707464 -1.467972
H -1.170635 -1.750808 -1.063131
H -1.102131 -2.896710 1.217742
H 1.046906 -0.258503 -1.942771
H -0.045631 1.242372 0.854859
H -1.839137 -1.981008 0.766267