17
H8 C7 O2
O -1.393223 -1.116060 -1.085843
C -0.569961 -1.239573 -0.034850
C -0.275337 -0.088589 -0.896713
C 0.764243 0.896779 0.672428
C 1.762854 -0.271057 0.624116
C -0.492242 0.116767 0.795746
O -1.292433 1.887640 0.472027
C -2.102662 0.863868 0.407231
C 1.048206 -1.411371 0.158538
H 0.053995 0.174631 -1.750895
H 2.743185 0.021980 -0.104376
H 1.353343 -2.403193 -0.440154
H 0.924618 1.824686 1.051796
H 2.074145 -0.615790 1.720876
H -2.716186 1.119685 1.253204
H -0.827583 -2.039605 0.747230
H -2.815830 0.215123 -0.079289