15
H6 C5 N2 O2
O -5.283391 2.746362 0.667245
C -1.723719 5.391815 3.036798
O -1.593019 4.436721 1.732435
C -2.027032 -3.976166 2.133841
C 4.229237 0.864615 0.862483
C 2.362716 -0.345822 0.701363
N 1.330203 -3.113987 -1.155277
N 1.050966 -0.074914 -2.284031
C -1.148995 -0.825103 -2.297650
H -2.833041 -3.834131 -3.054248
H 2.008442 0.852681 -0.720638
H 4.114332 -3.152780 2.200902
H 4.152169 -0.934788 -0.186255
H -4.961231 3.105150 1.680211
H 0.049122 -1.588706 -3.348056