20
H11 C8 N1
C -0.502137 0.059458 0.196209
C 2.017928 0.800415 2.999652
C -1.851061 -0.233688 -2.723613
C 0.702766 -0.292609 -0.090811
N -1.705432 -0.178654 -0.242327
C 1.843930 -0.947894 0.817752
C -1.762320 -0.393567 -1.410948
C 2.054565 0.516184 1.214503
C 0.638346 0.868496 1.018786
H 3.654604 -0.228573 2.020877
H -1.703436 -1.364214 -1.285657
H 1.879013 -1.844545 0.392957
H -2.684774 1.380201 -0.315996
H -2.003689 0.120084 -3.176529
H -3.421567 -0.155620 -1.448035
H -0.792048 1.115169 -2.431014
H -0.163759 0.903681 1.249182
H 1.750435 0.380893 3.489850
H 0.847371 -0.250388 -1.349709
H 2.204341 1.401380 0.531793