17
H8 C6 N2 O1
N 0.512198 -1.055307 -1.126675
C -0.126873 -1.880703 0.674070
N -0.188596 -1.701367 -2.122618
C -0.076236 -0.586580 1.102193
C 0.519810 0.017672 -1.337413
C 1.413815 0.349949 1.331067
O 1.757970 0.295413 -1.354310
C 0.130117 0.666349 0.849724
C -0.473789 0.779924 -2.111832
H -0.484204 0.458677 2.509860
H -0.846330 -1.130339 2.231113
H 0.031829 1.383783 -2.987865
H -0.633000 -2.521234 0.541827
H -1.514585 0.503384 -2.237987
H -0.349505 1.855079 0.413990
H 1.314845 0.595152 2.668205
H 2.022336 0.217973 1.330228