19
H10 C7 O2
O 1.708780 -0.027480 2.285403
C 0.910544 -1.803309 -1.301075
C 0.631320 -0.241826 -0.987169
C 0.312434 0.870029 1.769618
C 1.235612 0.460877 1.622002
C -0.322443 0.522289 0.963202
C -1.271875 -0.476107 0.993559
O -2.520946 1.259245 1.245648
C -1.169721 0.534494 -0.958020
H 2.346523 -0.261503 0.975488
H 1.512102 0.781280 -0.951969
H -1.859914 0.415932 -1.459471
H 0.816442 1.706821 1.795862
H -0.836777 -1.672648 0.096466
H -1.893798 -0.928376 1.399828
H 0.254332 -2.408636 -2.095228
H 1.957029 -2.213339 -0.810312
H -1.557858 1.417195 -2.270057
H -0.891735 1.239489 -0.519285