14
H5 C5 N1 O3
O 1.363796 -1.537013 0.802901
C -1.375270 -0.495142 0.210175
C 0.040296 -1.307816 0.321407
O -0.373633 -0.103491 -1.949900
O -0.051558 1.240870 0.679965
C 0.724275 0.447527 0.806394
C -0.393615 -0.575298 -1.005100
C 0.512583 1.972005 0.401812
N -2.090481 -0.616172 -0.698026
H 0.615476 -0.662092 -1.515256
H -1.802307 -0.977963 0.979673
H 0.804578 0.269492 2.020883
H 0.642457 3.152720 0.494291
H -0.198860 -2.494236 0.105643