17
H8 C6 O3
C 1.133619 -0.271333 -0.121035
C -0.163816 0.662115 1.073063
O -0.972193 1.960351 -0.509105
C 2.370971 -1.152404 -0.017306
C -0.759529 -0.108306 0.079780
O -2.178052 1.619131 -0.494193
C -1.036473 -1.588166 -0.202945
C -0.428650 0.519592 -1.424405
O 2.099727 -0.330709 1.175210
H 2.612196 -1.795433 0.314461
H -1.236809 0.500961 -2.161706
H 0.319826 0.232412 -2.346929
H 1.459454 1.512115 -0.015957
H 0.172167 0.321715 2.009768
H -0.268992 -2.773086 0.215365
H -0.813215 1.332564 1.996850
H -2.095886 -1.543526 -0.014818