19
H10 C7 O2
O 0.434582 -0.785004 -0.772057
C -0.310059 1.049466 -0.124935
C 0.227751 -0.279295 -1.714460
C 1.263989 -1.743705 2.171464
C -0.158875 1.305405 -1.637265
C -0.594757 -0.889428 -1.258806
C -0.275978 -0.460103 0.437591
O -0.786609 1.481401 1.846352
C -0.386284 1.235090 0.745451
H 1.723672 -0.897660 2.426440
H -0.309972 2.739372 0.920673
H 0.057134 -1.852364 -2.240257
H -1.081532 1.586430 -2.012496
H -1.695414 -0.746070 -1.529301
H 0.850666 -2.215611 2.873783
H 0.998350 1.835211 -1.217447
H 1.388401 -2.349732 1.548671
H -0.898864 -1.347470 0.769472
H 0.827885 0.516499 -2.509084