17
H9 C6 N1 O1
C -0.068714 -1.316122 -0.474061
O -0.981283 -0.018450 1.311471
C -0.711287 2.308759 -0.566417
C -0.392929 1.009744 0.217876
C -0.907099 -1.348439 0.948958
C 0.929079 0.341316 0.091669
C 1.073936 -1.297258 0.386052
N -0.463239 2.714247 -1.482261
H 0.025657 2.806781 -2.399023
H 1.517922 0.897573 -0.555266
H 1.394454 0.833559 1.317066
H 2.085811 -1.024490 0.430754
H -1.265722 -1.528438 1.933836
H 0.948152 -2.551714 0.900859
H -1.875602 -1.858907 0.396125
H 0.283935 -1.851807 -1.446732
H -1.797335 2.703114 -1.519109