14
H5 C4 N3 O2
C -1.795151 -1.536806 -0.610715
C 0.459182 0.571151 -0.351069
C 0.817915 1.079820 0.741067
N -0.413907 0.741710 -0.471470
N -0.277673 -0.647468 -0.755611
C 1.027747 -0.419228 0.835833
N 1.241520 1.590620 -0.620781
O -2.671845 -2.042005 -0.265583
O -1.592355 -0.539032 -1.419097
H -2.455018 -2.256781 -0.497768
H 1.225266 2.197311 -1.317139
H 0.482610 -1.052357 1.468688
H 2.353774 -0.026849 0.885896
H 0.390506 1.617106 1.539749