18
H9 C6 N3
C 0.149704 1.050072 -0.506252
C 0.306747 0.209437 -2.415603
C 0.031714 0.030296 0.767984
N -2.164472 0.026964 -0.056647
C 0.492637 -1.037060 1.522208
C -1.246196 0.035635 1.603166
N 0.064532 1.493124 0.880232
C 0.474537 -0.015910 -1.516384
N -1.936378 -0.714496 -0.270336
H -0.817930 1.386804 -1.385623
H 1.496311 -0.321081 -2.203535
H 0.867606 0.952031 -2.936745
H -0.529892 2.198302 1.008924
H -1.357103 -0.779186 2.885574
H 0.728512 -2.024787 0.702769
H 1.299112 -1.026743 2.033051
H -0.681169 -0.700664 -2.781195
H 2.001619 0.320396 -0.003523