20
H11 C7 N1 O1
C -0.546869 1.323110 1.148220
C -0.017052 -0.778131 0.072336
C 0.224630 1.444219 -0.260501
C -0.643497 -0.198492 1.239639
C 1.162532 0.200432 -0.151720
C -0.935577 -0.361675 -1.073321
C 0.462453 -2.254154 0.132595
N 0.642450 2.683589 -0.601714
O -0.560346 0.915630 -1.436259
H -0.989404 -0.791114 2.066334
H -1.524737 1.742526 1.106379
H 0.217304 3.048882 -1.466595
H 1.802432 0.419417 0.692027
H 0.566665 -2.673338 -0.880645
H 1.500351 -2.402191 0.585473
H -0.196142 -2.799507 0.732798
H -0.862845 -1.039660 -1.984017
H -0.023724 1.737805 1.988721
H 1.746184 0.073668 -1.074194
H -2.024806 -0.291010 -0.835551