21
H12 C8 O1
C 1.384380 -1.431007 -1.417423
C -1.847319 1.983624 0.771824
C -0.025737 0.777928 -0.152200
C -0.065388 -1.194930 1.479046
O -1.385440 0.768724 0.223446
C 1.700111 -1.158303 -0.168885
C 0.469477 -0.688791 -2.150722
C -0.100119 0.467378 -1.613008
C 0.817187 -0.236635 0.668664
H -0.800662 -0.683127 2.196445
H 0.523160 -1.905929 2.085729
H 0.517191 1.732934 0.019261
H -2.921509 1.935403 0.737053
H -0.766088 -1.835191 0.804983
H -0.548908 1.200477 -2.193732
H -1.548353 2.875072 0.254411
H 2.615957 -1.557006 0.340969
H 1.869154 -2.266617 -1.895803
H 1.424700 0.303414 1.362910
H 0.241546 -1.004573 -3.171911
H -1.553351 1.917145 1.818964