21
H12 C9
C 0.993553 0.064751 -0.546400
C -0.034101 -1.503891 1.025623
C -0.278986 0.854122 -0.979183
C 0.249556 -2.291770 -0.444616
C 0.905517 -0.277639 0.837141
C 1.528919 -1.438699 -0.112340
C -1.256754 1.426021 -1.282043
C -2.517374 2.161444 -1.633506
C 1.300832 0.782933 1.768826
H -0.288571 -2.022063 -1.262499
H 0.259221 -2.095465 1.867479
H 0.479138 1.039443 2.471864
H -2.335736 3.058408 -2.313792
H 2.466662 -1.913948 0.076149
H -3.115122 2.524346 -0.779562
H 2.141390 0.393056 2.373294
H -1.138938 -1.320454 1.031745
H -3.142309 1.538857 -2.287930
H 0.325785 -3.344848 -0.258727
H 1.887759 0.561325 -0.896169
H 1.569552 1.804072 1.344702