21
H12 C8 O1
C -0.402714 2.080539 -0.950084
C 0.907991 -2.669361 0.322118
C 0.186114 1.824343 0.414625
C -0.133098 -1.765424 0.763903
C -1.057158 0.674336 -1.177954
C -0.224871 -0.374250 -0.044676
C 1.156861 0.519630 0.261922
C -0.743184 0.653976 0.913356
O 0.619009 -3.723314 -0.156082
H -2.106959 0.678991 -0.926477
H -1.140069 -2.144025 0.797530
H -1.339527 0.618900 1.753788
H -1.077994 2.839648 -1.077635
H 1.859403 0.530236 -0.517222
H 0.126353 -1.482620 1.884928
H 0.463654 2.602929 1.061965
H -0.054186 -1.235483 -1.129517
H 1.537783 0.249010 1.222049
H -0.921816 0.295331 -2.213950
H 0.411208 2.228516 -1.704873
H 1.933203 -2.401868 0.502247