13
H5 C3 N5
C 1.432556 0.044004 0.356337
N -0.084815 1.799147 0.941777
N 1.088714 1.131212 1.081503
C -0.717780 -0.082315 -0.232294
C -1.891301 -0.814790 -0.868598
N 0.484492 -0.674168 -0.286110
N -1.037561 1.121380 0.253291
N 2.682786 -0.295670 0.389887
H -2.673254 -0.926278 -0.124067
H 1.784859 1.750445 1.580768
H -2.338504 -0.177801 -1.669600
H 2.848909 -1.075750 -0.167498
H -1.579093 -1.799404 -1.255391