20
H11 C7 N1 O1
C -0.450108 -0.146138 -0.024803
C 0.423722 2.560424 1.079074
C 0.799062 0.631438 0.120533
N -1.206241 -2.387656 -0.810743
C 0.867347 1.329715 1.502684
C -0.230555 -3.456336 -1.132294
C -0.700683 -1.251979 -0.448257
C 0.575825 1.984666 -0.443785
O -0.585258 1.890526 1.836946
H -0.730652 -4.127747 -1.867846
H 0.065091 -4.016906 -0.201798
H -1.385400 2.639649 1.914054
H 1.455851 2.486728 -0.910876
H -2.002198 -2.290051 -1.402557
H 1.669270 0.166671 -0.225921
H 0.795874 3.491097 1.356756
H -0.210750 2.262361 -1.157842
H -1.301999 0.286130 0.233163
H 1.540928 1.018809 2.273615
H 0.610899 -3.071360 -1.690101