16
H7 C6 N1 O2
O -2.495677 2.113021 -3.834015
N 0.953469 -0.573059 1.923433
C -0.619269 0.597196 0.424674
C 0.244199 -0.643861 0.668278
C -1.613747 1.317921 -3.473407
C 2.020495 -1.454241 2.076686
C -1.321420 1.028790 -2.062731
C -1.002971 0.829098 -0.904052
O 2.877599 -1.438555 2.951556
H -1.058849 0.658064 -4.150248
H 2.110218 -2.273961 1.309227
H 0.885711 -0.856743 -0.160005
H -0.495809 -1.577398 0.797449
H -1.517822 0.586026 1.070347
H 1.076665 0.199262 2.593158
H -0.042808 1.488460 0.769642