10
H2 C4 N4
N -0.029151 1.535828 -0.818557
C 0.111705 -0.299086 0.465243
C 0.373488 1.825749 0.430375
N 0.406199 0.723350 1.221699
C -0.153870 0.210670 -0.792457
N -0.566062 -0.802467 -1.663888
C -0.133816 -1.678065 0.303289
N -0.543710 -1.899848 -0.932543
H -0.052929 -2.474604 1.017529
H 0.588156 2.858471 0.769318