19
H11 C6 N1 O1
C 0.284989 0.455953 2.056546
C -0.870775 0.408042 1.055168
C -1.312688 0.685619 -1.301159
C 0.179777 -1.223612 -0.580488
C 1.519302 -0.587530 -0.989310
O -1.279783 0.528655 -2.491376
N 0.015132 1.562770 1.244550
C -0.947224 -0.239227 -0.222435
H -1.840413 0.567720 1.574272
H 0.089236 0.611058 3.094578
H 2.193710 -1.311665 -1.282550
H 1.344322 0.040888 -1.862053
H 0.352913 -1.932324 0.198512
H 2.030085 -0.023876 -0.158517
H -1.542084 1.790038 -0.993496
H -1.864306 -0.925823 -0.146336
H 1.163313 -0.209725 1.843963
H 0.639454 1.641130 0.456723
H -0.154965 -1.838108 -1.496620