22
H13 C7 N1 O1
C -2.357985 2.216174 1.516571
C 1.990230 -1.210235 -1.096484
C -0.406084 -1.835496 -0.582497
C -0.883337 1.878114 1.263727
C 0.561531 -0.651058 -0.941596
O -0.746602 0.935040 0.318694
C 0.600273 0.440849 0.067546
C 2.215545 -2.571472 -1.688801
N 2.233350 -3.656152 -2.149322
H 0.263146 -0.243567 -1.911931
H -2.864491 2.380163 0.650047
H 2.580163 -0.531542 -1.762488
H 1.155794 1.326324 -0.307918
H -0.307821 2.832894 0.939256
H 0.948503 0.112376 0.999479
H -0.100015 -2.280060 0.312953
H -2.765201 1.357302 1.979751
H -0.386397 1.631043 2.249171
H -0.399812 -2.571267 -1.424284
H -2.426933 3.088654 2.180033
H 2.478512 -1.228519 -0.094489
H -1.382342 -1.419603 -0.517443