16
H9 C5 N1 O1
C -0.518810 1.282910 0.848822
C 1.431430 0.160071 -0.282808
C 0.935987 1.291082 0.582624
C -1.023823 0.160851 -0.052774
N 0.105722 -1.878221 -1.025420
C 0.192258 -0.607820 -0.432729
O -2.003093 -0.695992 0.549451
H -2.735334 -0.871839 -0.053325
H 2.184620 -0.455355 0.244080
H 0.982538 -2.129329 -1.575216
H 1.803813 0.530522 -1.232184
H -0.708245 1.032643 1.926974
H 0.075674 -2.684821 -0.212961
H 1.649879 2.059598 0.987319
H -0.959455 2.230297 0.708878
H -1.413188 0.575396 -0.980707