17
H8 C6 N2 O1
C 0.067771 0.033100 -0.069484
C -1.461261 -0.524654 1.137572
C -1.372950 -0.310095 -0.500488
C 0.903666 -0.128436 -1.309855
N -1.242008 -1.706558 -0.256388
C -0.026130 1.121762 1.061334
C -0.236505 -1.334885 0.663443
N 1.845708 0.893918 -1.612539
O -1.096096 0.680660 1.762017
H 0.813794 -0.986183 -1.800214
H 2.576331 0.522875 -2.201525
H 0.920671 1.153839 1.690493
H 0.559303 -1.977424 1.101820
H 2.318448 1.328785 -0.816944
H -0.229705 2.142209 0.664169
H -2.313140 -1.045077 1.645998
H -2.027913 0.136190 -1.159406