22
H13 C7 N1 O1
C -1.178194 1.581293 -0.200906
O 0.977974 -0.814286 -1.649488
C 0.349554 -1.201078 -0.466557
C -0.303025 0.852846 0.841462
C 0.753088 1.546584 1.972492
C -0.896326 -0.260838 1.782300
C 0.693220 -0.083563 0.572191
N -0.440389 0.917704 2.407297
C 0.680677 -1.645822 -2.780296
H -2.015314 -0.337475 1.831746
H 1.299357 -1.311525 -3.652815
H 0.983545 -2.681177 -2.574094
H -2.063814 2.087258 0.314873
H 0.819184 -2.164445 -0.044386
H -0.383622 -1.582901 -3.006012
H 1.673064 1.136932 2.463804
H 1.712260 0.549456 0.303956
H -1.538229 0.917969 -0.957546
H -0.729322 -1.354459 -0.622816
H -0.582638 2.397758 -0.732502
H 0.626896 2.655525 1.968571
H -0.437958 -1.205763 2.228722