18
H9 C6 N1 O2
C 0.181492 -0.959022 1.919567
O 1.973844 -0.538951 -0.507321
C -0.990044 -0.647047 -0.238319
C -0.228398 -1.719218 0.662702
C 1.220332 0.657377 -0.748881
O -0.868522 1.357179 -1.705791
C -1.399661 0.628947 0.479726
N 0.784755 -1.738535 1.715967
C -0.356476 0.616743 -0.701892
H -1.066645 0.953777 1.349780
H -0.804959 2.244184 -1.649176
H -2.441254 0.912841 0.209374
H 1.456818 0.964171 -1.737409
H -0.401789 -2.701503 0.193381
H -1.666385 -1.093538 -1.017472
H 0.155108 -0.103037 2.596266
H 2.855909 -0.267636 -0.810386
H 1.595871 1.433260 -0.010126