25
H16 C9
C -1.339148 0.455969 -0.272086
C -0.065633 -0.125254 -0.086569
C 0.816623 -0.876438 -0.895027
C -0.332849 1.840685 3.125879
C -0.280160 1.527152 1.622411
C 0.224457 -1.424991 -2.271804
C 1.236481 -2.150151 -3.154428
C 0.429484 0.104775 1.329505
C -1.709072 1.315557 0.913177
H 0.248198 2.294919 1.149703
H -0.879872 1.026415 3.722619
H -0.194178 -0.608729 -2.835123
H -0.566178 -2.099560 -2.111180
H -0.902376 2.725277 3.275439
H 1.494710 0.221353 1.455001
H 0.819210 -2.550866 -4.080980
H 0.051087 -0.653057 1.961310
H -2.005752 0.220638 -1.055850
H 0.666850 1.939843 3.566420
H 2.066130 -1.535521 -3.405477
H 1.642848 -3.020930 -2.605331
H -2.397824 0.965957 1.588409
H 1.677067 -0.213286 -1.180616
H -2.069518 2.341403 0.612018
H 1.369413 -1.721140 -0.367421