18
H9 C7 N1 O1
O 0.495193 -1.998208 -0.641215
C 1.136425 0.003032 0.438665
C 0.367450 1.131896 -0.109646
C 2.324008 -0.031682 0.996718
C 0.100076 -1.106734 0.335970
C -0.865651 0.157749 -0.263535
N 3.339368 -0.029446 1.422254
C -1.686411 -0.053884 -1.493407
C -0.953139 1.165463 0.767795
H -2.067367 0.945506 -1.850792
H -1.592339 2.053141 0.538331
H -1.125708 -0.564643 -2.260067
H -2.588532 -0.597243 -1.295466
H -0.372973 -1.544857 1.220369
H 0.640331 1.927251 -0.744832
H 4.027151 0.214334 1.891703
H -0.309254 -2.620210 -0.762043
H -0.868662 0.948536 1.809205