15
H6 C4 N2 O3
O 0.286798 1.202592 -2.263496
C 0.367162 -0.980766 0.220357
C -0.459007 0.756199 -1.179271
C 0.041560 0.187897 1.141159
O 0.178300 2.502495 0.440330
N 0.823303 -2.149078 0.504611
C 0.006772 1.326114 0.194652
O -1.239657 0.100049 1.819306
N -0.262477 -0.694657 -0.953531
H -1.359604 -0.777451 2.235532
H 0.889639 0.323840 1.842883
H 1.160071 0.772806 -2.229644
H -0.312162 -1.420910 -1.724656
H -1.497609 0.924919 -1.345678
H 1.376923 -2.074076 1.297450