15
H7 C5 N1 O2
C -0.828174 0.202829 -1.274878
C 0.041437 -0.566213 -0.278078
C -0.742024 0.656672 0.179554
C -2.087603 0.436312 -0.431070
O -0.316391 1.649300 0.919207
C 2.180959 -0.956155 0.750478
N 1.437717 -0.388639 -0.165261
O 2.593769 -0.430166 1.721539
H -2.674389 1.308421 -0.621321
H 2.458475 -2.049636 0.533806
H -0.272891 -1.584180 -0.006168
H 1.890511 0.304461 -0.807584
H -2.665161 -0.464575 -0.162726
H -0.421465 1.360325 1.857071
H -0.594770 0.521230 -2.214561