19
H10 C8 O1
C -1.818585 0.073511 -0.147454
C -0.370386 -0.090370 0.255348
C 1.844587 -0.566360 -0.392876
C 0.746619 1.464483 -1.560571
C 0.114896 -1.365283 0.915184
C -0.390769 -2.048028 1.845063
C 0.723901 0.297927 -0.557681
C -1.326767 0.635335 1.138508
O 1.358702 -1.621705 0.476070
H -0.615888 -2.737118 2.492110
H 0.055092 1.287020 -2.386956
H 1.729926 1.607205 -1.988978
H -1.300413 1.711854 1.268770
H -1.644133 0.123529 2.079820
H 2.286737 -1.081795 -1.322348
H 0.443499 2.322667 -1.052824
H -2.074191 0.801065 -0.997551
H -2.484815 -0.735279 -0.161925
H 2.721970 -0.078657 0.098301