21
H12 C7 N2
C -1.877947 0.999642 -0.647116
N 1.077664 1.623384 0.817835
C 0.363481 -0.367120 -0.443301
C 1.297894 0.791081 -0.280649
C -1.233223 -0.382758 -0.739975
C -1.868999 -1.405158 0.182347
C -2.537761 -2.219133 0.815831
N 0.389406 -0.911730 0.816735
C 2.756795 0.482973 0.387974
H 3.420710 1.265292 0.061909
H -2.328300 1.120970 0.372711
H 3.004138 -0.484187 -0.081949
H 0.585819 -1.843314 0.800302
H -1.373748 -0.794470 -1.776943
H -3.225951 -2.889624 1.336038
H -2.698610 1.220012 -1.308664
H -1.185581 1.794864 -0.709355
H 0.828529 -0.994343 -1.347457
H 2.867122 0.368407 1.469173
H 1.345115 1.400642 -1.175092
H 0.393440 1.224577 1.449623