22
H13 C7 N1 O1
C -1.786198 -1.862821 0.604419
C -1.951463 -0.959192 -2.031567
C -0.016576 -0.253303 0.982683
C -1.071519 -0.603282 0.307459
N 0.949532 2.182820 0.014600
C 1.899292 1.067500 0.062660
C 1.785946 1.895489 1.224244
C 1.304403 -0.284283 0.029019
O -1.546504 -0.032507 -0.900410
H -0.725910 0.699612 1.353819
H 2.569085 2.743305 1.375496
H -1.050660 -1.604129 -2.187706
H 1.298192 1.690734 2.179025
H 1.284178 2.929817 -0.514466
H -2.862150 -1.538692 -1.796951
H 0.087854 -0.900822 1.889745
H 1.098341 -0.492382 -1.041407
H 2.799988 1.137806 -0.535234
H -2.009795 -0.281754 -2.882934
H -2.642984 -1.720697 1.127245
H 1.929828 -1.033376 0.437084
H -1.342900 -2.779829 0.303158