17
H8 C5 O4
O -1.946035 0.404650 -0.971370
C -0.387993 -1.582317 -0.345140
C 1.545991 0.786938 0.052473
O -1.048651 -2.265047 -1.020014
C 0.227990 -0.079566 0.053966
O -1.428418 1.137561 1.163424
C -0.990246 0.869657 -0.073597
C 0.268994 -1.356843 0.891691
O 2.069686 0.730957 -1.242303
H 2.216140 0.434841 0.821276
H -1.849957 -0.498774 -1.233871
H -0.321621 -1.328882 1.790834
H 1.197451 -1.869636 0.915205
H 2.057830 -0.153334 -1.619390
H -2.363883 1.181475 1.075206
H -0.576341 1.752694 -0.619859
H 1.329063 1.835616 0.361473