16
H7 C7 N1 O1
O -0.768988 -1.215816 0.922985
C -0.734269 0.878549 -2.149170
C -0.611555 -1.110643 -0.489004
C 0.335746 -0.196731 0.964499
C -0.392217 0.378337 -0.876981
C 0.808788 -0.492947 -0.418089
N -0.276001 1.065653 0.434400
C -1.119536 1.218873 -3.256703
C 1.009757 -0.188543 2.300941
H 1.387709 -1.222666 2.501932
H -1.168900 1.338753 0.855151
H 1.860736 0.517107 2.320621
H 0.311287 0.059717 3.110897
H -1.359010 1.599383 -4.205802
H 1.784029 -0.721507 -0.949735
H -1.067563 -1.907523 -1.065941