21
H12 C8 O1
C 0.393446 0.945512 0.747621
C 2.610407 1.935556 0.114840
C -1.743475 -0.696508 -0.422027
C 1.533922 0.885982 -0.038053
C -0.395180 -1.103485 0.126372
C -2.861678 -0.893644 0.623694
C 1.664365 -0.206265 -0.929995
C 0.732080 -1.119568 -0.891126
O -0.054500 -0.145808 1.211115
H 3.375126 1.818838 -0.693876
H -0.171694 1.879381 0.884066
H 2.237839 2.986647 0.014077
H -1.938266 -1.267088 -1.305598
H -1.736051 0.339885 -0.781772
H 2.413918 -0.300575 -1.625762
H 0.662928 -1.959012 -1.536723
H -0.406599 -2.059456 0.631700
H -3.866625 -0.705630 0.280710
H 3.104232 1.901664 1.080897
H -2.860218 -1.963788 0.988451
H -2.693982 -0.272616 1.521390