21
H12 C6 N2 O1
C 1.028884 -0.063198 0.869572
C -0.776073 -0.195240 -1.152191
C -2.173464 -0.583578 -1.336354
N 1.197309 0.945206 2.006467
C 0.287123 -0.741288 -2.111969
C 1.877603 0.617849 3.010722
C -0.351277 0.054075 0.319350
N -0.465173 1.252228 -0.689697
O 2.387429 -0.475264 3.194726
H -2.286141 -1.704664 -1.382236
H 1.255718 -0.230557 -1.970399
H -2.536395 -0.279031 -2.368374
H 1.812845 0.140160 0.137393
H -1.136932 -0.040123 1.020095
H -0.058716 -0.559297 -3.126963
H -1.455679 1.699604 -0.521476
H 1.850593 1.430736 3.759868
H 0.874558 1.828294 1.759971
H 0.394673 -1.831240 -2.029234
H 1.147014 -1.069409 1.205676
H -2.873904 -0.195284 -0.595003