16
H7 C7 N1 O1
O -2.550822 -1.114331 -1.872008
C 0.240208 0.419874 0.731912
C -1.623886 -0.738708 -1.188409
C 0.257504 -1.125704 0.407551
C -1.117746 0.564403 -1.345675
C 1.559158 0.980997 1.093495
C 2.572413 1.406918 1.355458
C -0.896402 -1.579863 -0.313095
N -0.194813 1.113972 -0.489304
H -0.096799 2.094243 -0.445564
H 1.248390 -1.398566 -0.183474
H -1.188857 -2.715017 -0.243712
H 3.540576 1.870189 1.593896
H -1.607817 1.270937 -1.981212
H 0.355282 -1.634252 1.349129
H -0.496349 0.584894 1.530997