13
H4 C4 N3 O1 F1
N -0.202276 1.399714 1.768625
C 0.314695 0.866008 -0.465428
N -0.497180 0.124328 1.898702
C -0.000224 -1.536101 -1.308356
F 0.663821 1.226784 -1.689211
C -0.054033 -0.519836 -0.220330
N -0.416337 -0.824694 1.007910
C 0.295915 1.902067 0.544700
O 0.587869 2.994450 0.310081
H -0.337417 -2.492407 -0.880346
H -0.806130 -0.208468 2.782729
H -0.588636 -1.263067 -2.137986
H 1.039925 -1.668757 -1.611073