15
H7 C5 N3
C 0.096412 -0.138779 -0.320293
C 1.074136 -1.589402 1.301124
N 0.565371 -0.891970 2.319048
C -0.157311 0.175143 2.015998
N 0.927112 -1.272942 0.014414
C -0.412393 0.617776 0.769289
C -0.760245 1.092509 -2.049355
N 0.051635 -0.013978 -1.588917
H -1.031235 1.483785 0.599314
H -0.592817 0.760012 2.836714
H -0.328479 2.047803 -1.799806
H -1.755329 1.059130 -1.718069
H 1.358099 -1.858357 -0.699674
H -0.775788 1.032686 -3.189393
H 1.740849 -2.503413 1.509592