17
H8 C5 N2 O2
C -1.004371 -0.274527 0.493694
C -0.697713 1.884270 0.207328
N 0.512717 -0.186480 -1.604681
O -1.060400 3.029524 -0.200024
C 0.638402 -2.107627 -0.047013
C 0.342950 0.140501 1.042305
C 0.245460 -0.722532 -0.260460
O -1.572994 0.947057 -0.010608
N 0.425935 1.534431 0.812676
H 0.799126 -0.218514 1.976626
H 0.217977 -2.729583 -0.857016
H -1.762673 -0.886179 0.949129
H -0.411999 3.684289 0.091236
H 0.248617 -2.528003 0.873042
H 1.731981 -2.270193 -0.061433
H -0.143818 0.552337 -1.793617
H 1.490800 0.151244 -1.611162