21
H12 C8 O1
C -0.856971 -3.143515 1.194729
O 1.490256 1.699023 0.185914
C 1.208722 2.806859 1.122726
C 0.289779 1.038359 -0.280563
C -0.137185 -1.315204 -2.237838
C 0.211883 -0.565643 -0.834917
C -0.511534 0.428824 0.874886
C -0.871286 -0.786619 0.114138
C -0.806910 -2.116821 0.730482
H 2.161762 3.327063 1.292290
H 0.814299 2.402947 2.142632
H -0.060380 -0.556989 -3.045109
H 1.240935 -0.897471 -0.626406
H -0.157277 1.651919 -0.980368
H 0.149275 0.218927 1.745878
H 0.456013 3.451300 0.810284
H -1.120986 -1.743414 -2.263666
H 0.546426 -2.128271 -2.423226
H -1.279958 1.104481 1.241979
H -1.820967 -0.674729 -0.416916
H -0.945882 -4.201019 1.653088