18
H9 C6 N1 O2
C 2.220106 -0.346727 -1.019423
C 1.913545 0.882624 -0.112411
N -1.740331 0.296539 0.824814
C -2.675343 1.050663 0.087070
O -3.805099 0.814650 0.135818
C -1.077838 -0.620325 0.064756
O -0.286198 0.011353 -1.036791
C 0.222595 -1.123094 0.751204
C 0.919972 -0.205867 -0.340832
H -1.825264 0.335610 1.815863
H 2.197183 -0.163228 -2.101858
H 2.992608 -1.072136 -0.657922
H 0.461000 -0.892708 1.729774
H 1.583061 1.832163 -0.533376
H 0.385603 -2.200314 0.492613
H -2.185917 1.826248 -0.545356
H -1.726363 -1.339728 -0.379873
H 2.426682 0.914305 0.825968