20
H11 C7 N1 O1
C 0.773964 0.424646 0.997168
C 0.247312 -0.817780 0.239941
C -2.041528 0.240341 0.274760
C 0.695122 1.641452 0.124570
C 0.058111 -0.357579 -1.183576
N -1.063430 -0.683420 -0.277220
C 0.590116 1.092018 -1.305807
C 0.826177 -2.151600 0.644494
O 1.237309 0.396148 2.183261
H -1.704939 1.094747 0.817611
H 0.179969 -0.976183 -2.036243
H 1.868342 -2.251674 0.516314
H 0.527936 -2.331438 1.677754
H -0.059921 1.674429 -1.964728
H -2.744484 -0.330332 0.838324
H -0.160288 2.287389 0.411824
H 0.311868 -2.922505 0.031042
H 1.570360 2.253745 0.369216
H -2.645128 0.615806 -0.637815
H 1.533123 1.101803 -1.720881