18
H9 C7 N1 O1
O 0.135531 0.339987 -0.182759
C -0.163723 -0.703471 -0.073524
C -0.544308 3.475976 1.595839
N -0.384853 0.584960 2.055921
C -0.231187 -3.060723 -0.933109
C -0.193533 -1.825894 -0.485953
C 0.010451 1.072425 0.973176
C 0.325851 2.576117 0.776492
C 0.475769 -3.686977 -2.124868
H -0.242266 4.506299 1.407968
H 0.161081 -4.627125 -2.388704
H 1.425577 2.661305 1.012630
H 0.286282 2.692178 -0.297025
H -0.949379 -3.773382 -0.452322
H 1.552784 -3.735378 -1.890038
H -0.443401 3.216465 2.662399
H -1.632688 3.363306 1.358346
H 0.412012 -3.076064 -3.014449