14
H5 C5 N3 O1
C -0.487162 -0.078159 -0.894954
C 1.760782 1.248034 -0.717224
O -0.424608 -1.551463 2.362406
C -0.236510 -0.971076 1.308574
C -0.972357 -1.151676 -0.005315
C 0.554403 0.668106 -0.101351
N 0.594414 0.001513 1.188818
N 2.666798 1.733680 -1.104658
N -0.751781 1.242526 -0.439923
H -0.357407 -0.165815 -1.971284
H -0.821307 -2.148741 -0.434116
H 1.236140 0.331730 1.835348
H -0.728446 1.926953 -1.149541
H -2.032979 -1.085600 0.123209