16
H7 C6 N3
C 1.282622 -1.016828 -0.011557
C 0.927415 -1.997299 -0.844791
N -1.458718 1.085856 0.065216
C -0.669202 1.852892 0.888426
C -0.754197 -0.029704 -0.352098
C 0.698339 1.213178 1.032976
N 0.482907 -0.022455 0.286000
C -1.100756 -1.054469 -1.185863
N -0.310859 -2.059363 -1.424289
H 2.295429 -1.017329 0.426948
H 1.491502 1.835674 0.650712
H 0.860926 0.979464 2.092322
H -2.286539 1.367812 -0.289089
H 1.602008 -2.827400 -1.066831
H -0.945910 2.808410 1.343868
H -2.115006 -1.118426 -1.611932