17
H8 C6 O3
O -1.188857 -0.767820 -2.939176
C 0.755364 0.950048 -0.650316
C 0.999457 -0.704326 1.274246
O -1.172371 -1.024796 -0.651314
C -1.074518 0.217270 0.149859
C -1.018209 -0.363677 -1.877755
C 0.355656 0.437693 0.712446
O 0.315491 -1.401961 2.351850
C -0.702823 0.940924 -1.183210
H -1.948841 0.342041 0.730938
H 1.218963 -1.490544 0.498184
H 0.261895 1.175216 1.494337
H 2.018088 -0.507904 1.700225
H -0.307588 -1.940303 1.879820
H 1.190472 1.945517 -0.674518
H -1.147182 1.837668 -1.555424
H 1.445017 0.354967 -1.260172