21
H12 C8 O1
C 0.120763 -0.299618 -0.288702
C 0.558213 1.753792 -0.572073
C -0.740888 -1.577409 -0.097789
C 0.524884 -2.358482 0.090188
C -0.047985 0.617064 -1.443402
C 0.245441 0.875977 0.688659
C -1.126757 1.256280 1.441382
O 1.297681 -2.246053 -1.101167
C 1.365904 -1.284874 -0.135364
H -2.002292 1.143568 0.752712
H 2.314506 -0.947069 0.263607
H -1.058257 0.833751 -1.727587
H 0.483307 0.365555 -2.417849
H 0.613026 -3.193258 0.779766
H 1.012970 0.850967 1.392763
H 1.623910 1.895472 -0.743488
H -1.109668 2.295938 1.747003
H -1.522805 -1.499324 0.744541
H -1.252695 0.618258 2.289859
H -1.353931 -1.865484 -1.009296
H 0.054659 2.764986 -0.653764