17
H8 C7 O2
C -0.068440 0.876680 0.351092
C -0.177273 -1.540081 1.458580
C 1.590219 0.181806 -1.130372
C 0.941468 1.384469 -0.602465
C -0.054447 -0.640969 0.253823
O 2.541182 0.023034 -1.960794
C -0.480250 1.603684 -0.858641
C -1.256947 -1.451923 0.432769
O 0.875096 -0.915777 -0.750225
H -0.190867 1.365157 1.371048
H -2.172792 -0.932053 0.725413
H -0.959459 1.012076 -1.688763
H -0.304154 -1.128058 2.400692
H -1.407086 -2.235748 -0.275772
H -0.908411 2.619577 -0.728521
H 0.449174 -2.425397 1.396982
H 1.583004 2.203555 -0.394829