18
H9 C6 N1 O2
C -0.291582 -2.089388 -2.039543
C 0.532450 0.974560 1.704438
C -0.268958 1.983263 0.873662
C 0.070714 -0.521224 -0.243324
C 1.137154 -0.087815 0.787822
O -2.138440 -0.127377 -0.993971
N 0.495927 -1.495682 -0.982207
C -1.214831 0.196933 -0.381642
O -1.352083 1.352641 0.359986
H 0.216280 -1.835877 -2.998529
H 1.994191 0.311641 0.186694
H -0.293755 -3.193422 -1.903268
H 1.457262 -0.936890 1.350149
H -0.683815 2.768676 1.595358
H -1.370243 -1.771875 -2.080266
H 0.337059 2.463441 0.115733
H -0.042747 0.502637 2.493381
H 1.415418 1.505778 2.155530