16
H7 C5 N3 O1
C 0.805299 0.389061 -0.400943
C 0.958444 -0.994726 0.414187
C -0.435307 0.929946 -2.005787
N 0.702663 0.289542 -1.836113
C 0.169345 -0.393142 1.640051
C -0.980333 0.383467 1.211528
O 0.107095 -1.993615 -0.191857
N -0.422463 1.001498 0.102402
N -1.172188 1.290117 -0.928149
H 1.705101 0.970049 -0.142155
H -1.303650 1.156249 1.964419
H -0.857654 1.052020 -3.006834
H 0.169269 -1.895013 -1.147753
H 0.525989 -0.653481 2.621592
H 1.914056 -1.328944 0.678893
H -1.885702 -0.203040 1.026506