17
H8 C7 O2
O 2.361445 -0.433087 0.757492
C -0.086826 -0.861596 0.747570
C 0.800953 1.198914 -0.033653
C 1.212816 0.081947 0.487088
C -0.060897 -1.220288 -0.719177
O -1.424189 -1.251679 -1.371586
C -1.151770 0.203187 0.796504
C -0.609389 -0.040951 -1.440945
C -0.688220 1.034637 -0.371195
H -0.056832 -1.518732 1.511085
H -2.173414 -0.128083 0.638602
H 0.592475 -1.964944 -1.078775
H -1.172134 0.879126 1.769036
H -0.322512 0.178527 -2.468918
H 1.373411 2.051773 -0.180018
H -1.261063 1.956762 -0.683659
H 2.666158 -0.165522 1.640538