10
H1 C2 N5 O2
O -1.478202 -1.817472 -1.381413
C -0.291617 -0.301241 -0.295940
N -0.202416 -1.153890 0.735093
N -0.999708 -0.701306 -1.420611
C 0.886669 1.247921 0.773554
O -1.001555 -0.008883 -2.427912
N 1.029842 0.392335 1.802912
N 0.416835 -0.821177 1.780223
N 0.248884 0.942239 -0.352050
H 1.391268 2.221477 0.786139