18
H10 C7 O1
C -0.874353 0.047062 -0.513741
O 0.986941 -0.035678 -1.933676
C 1.450199 -0.692686 -0.754406
C -1.124717 0.314724 1.120988
C -0.247522 0.713865 -1.673914
C 0.401186 -0.346630 0.241223
C 0.214918 0.993514 1.018692
C -0.436284 -1.041783 1.389379
H -0.952979 -1.893731 1.101377
H 2.441059 -0.328557 -0.577486
H -2.083363 0.617019 1.621199
H 0.089235 -1.198392 2.304747
H 0.053014 1.737141 -1.532464
H 0.823990 1.069220 1.987204
H -1.574462 -0.761027 -0.798241
H 1.503634 -1.760056 -0.995362
H -0.885590 0.636056 -2.562915
H 0.215063 1.929949 0.557384