19
H10 C6 N2 O1
C 0.185474 1.166929 1.315019
C 1.500983 1.137686 0.620763
O -1.868207 0.969958 -2.329848
C -1.655581 0.455740 -1.233832
C 1.228832 -1.916298 -0.001733
N 0.032949 -1.056425 0.078367
N -2.584523 0.223596 -0.244465
C -0.224223 -0.104481 -1.019982
C 0.356406 0.245965 0.286749
H 0.164733 0.787377 2.386579
H 2.389378 0.747364 1.130676
H -0.481146 2.071061 1.210645
H 1.797074 1.934671 -0.035086
H -3.479509 0.525959 -0.389275
H -2.276550 -0.484221 0.440577
H 2.091132 -1.470062 -0.445336
H 0.975125 -2.792921 -0.755073
H 0.369175 -0.191836 -1.945117
H 1.478426 -2.250122 0.930345