15
H6 C7 O2
O -1.186333 -0.732367 -0.591498
C 0.037512 -1.346117 0.189215
C -0.880724 0.523764 1.330107
C 0.081770 1.316169 -0.814175
C -0.193756 -0.636733 1.514560
C 1.211728 -0.835581 -0.703543
O 2.003732 -1.623544 -1.142579
C 1.119301 0.568224 -1.116846
C -1.127080 0.596864 -0.193898
H -1.087176 1.215820 2.078636
H 1.980699 1.001522 -1.748915
H 0.038969 -1.094589 2.439669
H 0.108631 -2.432238 0.233028
H -0.009691 2.335900 -1.120829
H -2.097593 1.142894 -0.352942