14
H5 C6 N1 O2
O 0.139420 0.115388 2.034069
C -0.339838 0.196621 -2.182710
C 0.409080 1.015429 0.295398
C 1.080117 0.791679 1.487612
N -0.231352 0.840713 -3.096839
C -0.621327 -0.625026 -1.119230
O 2.061068 1.310004 2.072254
C -0.829032 0.186620 0.493838
C 0.203218 -1.231489 0.211116
H 0.500202 1.767740 -0.312451
H 1.243379 -1.400079 -0.148182
H -1.831249 0.478009 0.784029
H -1.377083 -1.503919 -1.337192
H -0.406609 -1.941660 0.818288