18
H9 C7 N1 O1
C 0.234285 1.185059 -1.695185
C 0.176411 0.350933 -0.365063
C -1.164869 0.380188 0.389258
O -1.664870 -0.636141 -0.510808
C -0.347820 -1.152537 -0.550236
C -0.077333 -1.553607 0.938512
N 0.789129 -0.510067 1.630265
C -0.681346 -0.368156 1.562891
C 1.340714 0.365380 0.589068
H 1.547622 1.369662 0.968842
H -0.097139 -2.530538 1.317186
H -1.819472 1.257267 0.504658
H 1.124689 0.920983 -2.286759
H -0.673549 1.036188 -2.314844
H -1.113659 -0.418877 2.535027
H 0.286726 2.234754 -1.455359
H -0.083797 -1.825456 -1.375329
H 2.224300 -0.105046 0.117842