15
H6 C5 N4
N 1.087138 1.392743 0.736274
C -0.213921 -1.875654 0.035357
N -2.050951 0.580686 2.074957
C 0.043580 0.527970 0.428691
N 0.497699 -0.630683 -0.219475
C -0.292999 0.327142 -1.020268
C -1.135042 0.510567 1.337251
C 0.502820 1.003740 -2.097272
N 1.083716 1.581137 -2.956982
H 0.019767 -2.578336 -0.720758
H -1.257488 -1.819281 0.120727
H 1.882885 0.834655 1.101776
H -1.274639 0.196923 -1.282560
H 0.912664 2.156139 1.461214
H 0.194775 -2.207743 1.001058