19
H11 C5 N1 O2
C -0.500823 -1.717454 -0.945948
N 0.475168 0.244196 -1.717816
C 1.432533 -0.747756 0.282617
O -1.464249 -1.725619 -1.633524
C -0.911880 0.351012 0.452590
C -0.491662 1.762414 0.785557
C 0.164038 -0.415007 -0.528642
O -1.235242 -0.444168 1.567001
H -0.353449 0.377671 -2.269582
H -0.485841 -0.355404 2.174344
H -1.801905 0.321701 -0.182360
H 1.282071 -1.483937 1.073748
H -0.272218 2.401824 -0.080686
H 1.854503 0.170864 0.793597
H 2.210171 -1.156978 -0.369968
H 0.950826 1.053658 -1.584712
H -0.019765 -2.682632 -0.630530
H 0.439574 1.746688 1.415970
H -1.271864 2.298917 1.398322