14
H6 C5 N2 O1
N 0.097455 0.481710 -1.057381
C -1.765774 -0.784814 0.039096
O -1.865713 -1.548063 1.190688
C 0.670107 1.704640 -0.730856
C 1.560758 0.560385 -1.015479
N 0.226539 -0.746531 1.085378
C -0.607840 -1.515821 1.753208
C -0.470846 -0.384913 0.030816
H -0.498637 -2.056405 2.647243
H 0.667185 2.004565 0.317783
H -2.644088 -0.762460 -0.604875
H 2.020394 0.453262 -2.008621
H 2.129428 0.122403 -0.186682
H 0.481027 2.472023 -1.460275