19
H10 C8 O1
C 2.321722 0.033474 -0.882667
C -2.035994 0.379786 0.648710
C 0.232287 -1.323627 0.304465
C 0.871591 -0.179892 -0.243973
C -0.387078 -0.667793 -0.974297
C -1.145793 0.576621 -0.621087
C -0.012001 0.921311 0.346700
O -0.246363 -1.086337 1.539494
C -0.720163 0.243153 1.484731
H -2.545628 1.304647 0.891204
H -1.425887 1.185343 -1.389806
H 0.622392 -2.379227 0.184576
H -2.718539 -0.449969 0.680117
H 0.361871 1.957657 0.411832
H 2.597116 -0.932852 -1.310750
H -0.469236 -1.258066 -1.858201
H -0.735409 0.618070 2.497739
H 2.410773 0.797644 -1.640566
H 3.024368 0.260055 -0.068234