15
H6 C4 N4 O1
N 0.627591 0.275785 0.495667
C -0.297032 -0.203009 1.453116
C 0.108381 0.122747 -0.540725
N 0.784480 0.498373 -1.773163
N -1.344912 -0.574163 0.778129
C -0.088253 -0.324047 2.892961
O -0.288933 -0.877584 -3.320484
C 0.501214 -0.061216 -3.002326
N -1.127252 -0.362002 -0.508116
H 1.444028 1.234134 -1.653681
H 0.630522 -1.117107 3.208745
H 0.198764 0.594451 3.422169
H -1.109100 -0.566407 3.383089
H -1.782693 -0.633212 -1.254745
H 1.146343 0.414555 -3.831580