19
H10 C8 O1
C 1.120317 0.221257 0.862904
C -1.488320 -0.029454 -1.533144
C -0.422702 0.705863 -0.618567
C -1.313072 -1.498300 -1.198909
C -0.035695 -1.357154 -0.262145
C 0.806947 -0.127338 -0.713181
C -0.369649 -0.194968 0.695793
C 1.223672 1.544205 1.698183
O -2.307678 0.431654 -2.273241
H -0.444483 1.738374 -0.617486
H 0.381250 -2.222296 0.209518
H -2.116090 -1.967303 -0.734088
H -1.083527 -2.073685 -2.087447
H 1.834347 -0.480845 1.140439
H 1.304605 1.181571 2.769444
H 2.072324 2.060470 1.400074
H 0.294759 2.083773 1.574002
H -1.151217 -0.099578 1.493611
H 1.505704 -0.166045 -1.633779