20
H12 C6 O2
C 1.155479 -1.711082 -0.814837
C 1.994274 -0.656392 -0.143783
C 0.648091 -0.371354 -0.698756
O 3.129200 -0.190508 -0.856977
C -0.651666 -0.143643 0.103707
C -2.122529 1.490808 1.277816
C -0.781720 1.303613 0.543005
O -1.724033 -0.803515 -0.560962
H 3.250630 -0.905912 -1.377054
H -0.612994 -0.725833 1.039938
H -1.857372 2.006382 2.153510
H 0.174885 1.510080 1.187206
H -2.787616 2.090734 0.696026
H -2.657717 0.576298 1.577848
H -0.682442 1.948513 -0.269605
H 0.650036 0.366575 -1.535258
H 0.705265 -2.487313 -0.234826
H -1.999080 -0.229117 -1.270470
H 1.557155 -1.993868 -1.787933
H 2.157597 -0.735746 0.914416