15
H6 C5 N2 O2
O -0.840601 1.221239 0.197403
C -0.165798 0.393422 -0.599328
C 0.429670 -0.849211 -0.197012
O -0.803473 -0.165472 2.469914
N -1.199116 2.340013 -0.611615
C -0.783783 1.988596 -1.767745
N -0.028966 0.868686 -1.825386
C 0.998339 -1.080907 1.181378
C -0.303551 -1.110708 2.040365
H 1.708261 -0.192068 1.234579
H -0.941113 2.653238 -2.622750
H 1.530583 -2.018787 1.173710
H 0.431535 0.480888 -2.596884
H -0.595717 -2.170297 2.337855
H 0.324247 -1.702879 -0.818981