18
H10 C7 O1
C 1.015494 -1.846257 0.080115
C -1.659156 0.565330 -0.470676
C 0.917295 -0.637115 -0.934444
C -0.262745 -0.339818 1.218125
C 1.096302 -0.902113 1.153292
C -0.611257 1.555153 -0.293141
C -0.149104 0.050074 -0.174186
O -0.733488 2.377725 0.838928
H 0.178934 -2.564788 0.234078
H 1.944357 -2.416124 -0.067150
H 1.739082 -0.175059 -1.177384
H 0.446614 -1.053697 -1.976846
H -2.025668 0.456887 -1.552972
H 0.080026 2.625348 1.171929
H 1.981003 -0.555097 1.641131
H -2.454050 0.590880 0.220552
H -0.845362 -0.371649 1.991482
H -0.272168 2.201039 -1.226758