19
H10 C6 O3
C 0.881690 1.003548 -0.411990
C -0.677058 -1.499512 0.401527
C -1.469369 0.153919 -0.789659
C 1.480422 -0.353704 0.056485
O 1.077793 1.485328 0.643761
C 0.557756 -1.040029 1.135665
O -1.234206 2.276996 0.059012
C -0.603449 1.341748 -0.855753
O -1.701716 -0.399960 0.316568
H -1.378590 1.690012 0.850236
H -1.270862 -2.225049 1.097700
H -0.586271 -1.906481 -0.631071
H -0.693415 1.692760 -1.950346
H 1.607854 -1.042498 -0.862548
H 1.512222 1.291337 -1.309640
H 0.301767 -0.572432 1.893817
H -2.003515 -0.072568 -1.751673
H 1.078673 -1.977887 1.417837
H 2.499043 -0.229406 0.505090