21
H12 C7 N2
C 0.161367 1.278525 0.509242
N -1.559897 -0.657629 0.240164
C -1.126266 1.670794 -0.252100
C 1.613613 -0.973282 -0.413092
C -0.598633 0.254962 -0.144228
C -1.347611 -1.510635 1.354953
C 0.345481 -0.337886 -1.227680
C 1.676826 0.451828 -0.966409
N 1.275308 1.607486 -0.212719
H -2.044312 -2.337854 1.351069
H 1.682832 -1.091289 0.583611
H 2.191374 -1.721504 -0.982213
H -2.086005 1.772005 0.503088
H 2.062267 2.025520 0.343286
H -0.358757 -1.999521 1.220389
H 0.030938 -0.619554 -2.154612
H -2.174487 -0.864420 -0.549726
H -1.430832 -0.968452 2.243535
H -1.095337 2.333490 -1.024908
H 2.431316 0.561677 -1.833613
H 0.138695 1.487582 1.609178