25
H16 C9
C 2.080940 1.769549 2.179603
C -1.372813 0.164751 -0.054061
C -0.905669 -1.151410 -0.393483
C -0.424674 1.326555 -0.631233
C 0.812821 2.170252 1.466806
C -0.949915 -3.025844 -2.043911
C -0.030561 -0.367564 0.938400
C -0.479315 -1.481088 -1.717552
C 0.134820 1.065178 0.642283
H 2.523529 2.658324 2.635368
H -1.592746 -3.468249 -1.349529
H 1.882543 0.994998 2.866564
H -0.967497 -0.836786 -2.512079
H -1.536660 -1.837889 0.147120
H -1.607912 -2.962494 -3.021486
H -0.954907 2.366308 -0.693535
H 0.986441 -0.894283 0.856882
H 2.836381 1.350582 1.489039
H 0.142896 2.540785 2.255157
H 0.058143 0.978801 -1.496316
H -0.314489 -0.601596 1.969237
H -0.023716 -3.658766 -2.210313
H 0.636833 -1.117524 -1.650153
H -2.391261 0.440901 0.212410
H 1.084484 3.075740 0.779004