19
H10 C7 N2
C -0.659961 -0.408882 0.939263
C 0.157800 -0.039135 -1.487182
C 2.203568 1.362640 -0.877187
C -1.721520 0.540207 1.123743
N 1.106146 -1.367567 0.106000
C 0.840525 0.960381 -0.487039
C -0.349334 -1.074802 -0.468990
C 0.900963 0.049652 0.806527
N 3.214716 1.805795 -1.249115
H -0.578517 0.419265 -2.089437
H -2.636164 0.041586 1.529137
H -1.532705 1.251216 1.947370
H -0.971928 -1.925095 -0.832382
H 0.941289 -2.241723 0.664080
H -2.041943 1.091876 0.295056
H 0.265298 1.789856 -0.304726
H -0.663810 -1.158281 1.710359
H 0.863510 -0.572480 -2.230184
H 1.478366 0.249355 1.554195