15
H6 C5 O4
O 1.881195 0.088405 -0.076429
C 2.350746 -1.021306 -0.723549
O -1.794499 -0.254550 0.082646
C -1.677136 1.107080 0.532866
C 0.477202 0.088898 0.204529
C -0.218222 1.269907 0.648366
O 0.372484 0.447950 1.524130
C -0.577053 -0.712636 -0.414047
O 3.547870 -1.306822 -0.649898
H -0.467254 -1.863190 -0.102664
H 1.575537 -1.628856 -1.203893
H -2.147963 1.699099 -0.266721
H -2.230060 1.205113 1.499529
H 0.238941 2.316785 0.554561
H -0.547834 -0.738010 -1.493744