23
H14 C9
C -0.547797 -0.100010 2.166615
C -2.342181 -0.236386 -0.856131
C 0.539271 -0.422990 -0.131202
C 2.888028 -0.501805 0.387069
C 2.645034 -0.101387 -0.849048
C -0.327857 0.492850 0.663290
C 1.206308 0.174370 -1.394561
C 1.884319 -0.695426 0.333542
C -1.656306 0.846539 -0.081631
H -3.319320 0.121151 -1.308510
H -1.140451 0.580378 2.832258
H 0.946456 1.221256 -1.490536
H -1.745919 -0.642968 -1.761796
H -2.346093 1.291951 0.661110
H -2.547578 -1.083354 -0.189832
H 0.432572 -0.220477 2.616466
H 0.159660 1.436286 0.823726
H 3.706580 -0.724862 0.981302
H -1.053390 -1.115822 2.056110
H 1.006799 -0.300131 -2.348722
H 0.018778 -1.325042 -0.407393
H -1.396988 1.583777 -0.769202
H 3.473891 -0.041394 -1.634998