16
H7 C8 N1
N 1.085209 -0.676197 0.799351
C 1.096552 -1.453774 -0.123648
C -0.005626 -1.623988 -1.090484
C -0.361663 0.810975 -0.760107
C -1.205568 0.228355 0.249654
C 0.647050 1.442940 1.551181
C 0.238403 0.473583 0.682091
C 1.089690 2.288248 2.372528
C -1.030176 -0.512346 -0.955824
H -0.479818 -2.526254 -1.028648
H -2.108003 0.567744 0.746283
H 1.953835 -2.041048 -0.206724
H 1.350377 3.031743 3.060071
H -0.300422 1.700851 -1.290679
H 0.413337 -1.540755 -2.135082
H -1.878032 -0.475633 -1.699720