17
H8 C4 N4 O1
C 0.872772 0.947101 -2.821352
N -0.992378 0.567191 2.210818
N 0.453300 -1.050283 -0.700531
N -0.543181 -0.508777 1.282118
C -0.801301 -1.904020 1.636353
N 0.701003 0.611885 -1.561142
C 0.289773 1.141286 -0.509341
C 0.075887 -0.201196 0.023710
O 0.205358 2.245884 0.062167
H 1.855558 1.243764 -3.127401
H -0.695954 0.346440 3.094744
H -1.285036 -2.429637 0.882036
H 0.791541 -0.150600 -3.174913
H -0.776650 1.484816 1.907383
H 0.154077 -2.415557 1.847153
H -1.402604 -1.951015 2.561878
H 0.346458 1.818479 -3.128577