12
H3 C3 N4 O1 F1
N 2.097372 0.741624 -0.914616
C 0.985261 0.273397 -0.203869
N -0.114613 0.154321 1.789662
C -1.249696 -0.468199 -0.239361
O -0.033846 -0.055036 -0.845140
N 1.000027 0.510757 1.175498
N -2.137529 -0.926127 -0.966184
C -1.168373 -0.301660 1.128109
F -2.273648 -0.624885 1.813918
H 2.063033 0.909492 -1.849322
H 2.967609 0.818138 -0.453793
H -2.896003 -1.179838 -0.787692