18
H10 C6 O2
O -1.753402 -0.714376 -1.881528
C -0.102471 0.673237 1.258850
C 0.454158 -0.387069 0.442421
C -1.464036 0.454782 -1.009304
C -0.987689 -0.006933 0.258224
C 1.126992 0.983172 0.575571
O 0.934506 2.215871 -0.042794
C 1.117953 -1.644137 0.094884
H -0.636319 1.046198 -1.445271
H -2.390912 1.049394 -0.996890
H 0.440339 -2.533791 0.277908
H 1.263435 -1.698355 -0.956730
H -1.781416 -0.622660 0.805850
H 1.999418 -1.731282 0.652864
H 2.041446 0.878541 1.047262
H -0.217125 0.875745 2.393680
H -2.278077 -1.343567 -1.356828
H 1.278525 2.377558 -0.732470