19
H10 C8 O1
O 0.002089 0.964607 -0.931107
C -1.871608 -0.068132 -0.199967
C 2.118500 0.212276 0.049956
C 1.554325 -0.762167 -0.571033
C 0.265368 -0.429539 -1.199729
C 0.063702 0.670512 1.502785
C 1.519078 0.529778 1.333508
C -0.911458 -1.165429 -0.499078
C -0.755401 0.950828 0.363302
H -1.222290 1.993627 0.413912
H 2.134672 0.444053 2.220634
H -2.603742 -0.272120 0.510309
H -0.308166 0.660831 2.380623
H -0.584233 -1.717876 0.373719
H -2.315115 0.307418 -1.114176
H 2.073766 -1.750896 -0.586608
H -1.235403 -1.933604 -1.280898
H 0.342075 -0.486763 -2.351779
H 2.823937 0.723645 -0.522698