20
H11 C7 N1 O1
C -0.989164 1.153687 1.228841
C -2.003968 0.837328 0.230853
C 0.247531 -0.391294 -0.817308
C -1.716030 -0.585265 0.837544
C 0.721136 -0.727606 1.828209
C -0.228127 -0.272216 0.709180
O 0.840297 0.684894 -1.300817
C 1.477907 0.516432 -2.502269
N -2.065412 0.477271 1.737461
H -2.609500 1.325762 -0.422295
H 1.849022 1.487640 -2.798462
H 1.038773 -1.801811 1.616119
H 2.473137 -0.096911 -2.344062
H 1.558295 -0.107902 1.811084
H -0.716093 2.186868 1.588560
H -0.566798 -0.771438 -1.509033
H 0.219826 -0.696607 2.786884
H 0.906093 0.048417 -3.249212
H -2.260583 -1.484085 0.925910
H 0.906340 -1.330931 -0.734438