20
H11 C7 N1 O1
C 0.063514 0.942200 -0.978817
C 0.147635 2.301376 0.131242
C -0.427259 -0.756258 -0.657261
C 1.249866 0.944733 -0.280495
C -1.055080 -0.270211 0.784450
C 0.068468 -2.196846 -0.560461
C -0.336052 1.090727 1.077924
N 0.731923 0.181445 0.657101
O 0.846409 -2.632122 0.624020
H 2.275044 0.844241 -0.608726
H 1.206605 -1.847174 0.887647
H -1.188872 -0.910790 -1.454635
H -0.877169 -1.209568 1.406734
H -0.336464 1.294248 2.131513
H -0.062342 1.334873 -1.993957
H 1.019545 3.109314 0.256656
H 0.840073 -2.396584 -1.463699
H -0.726334 -2.907782 -0.598216
H -0.699010 3.114486 -0.013536
H -2.089237 -0.169551 0.677516