20
H12 C6 O2
C -2.461178 1.258631 1.045766
C 0.757539 -1.604703 -1.150387
C 0.768324 0.418639 -1.556640
C 0.613594 -0.326777 -0.218798
C -0.817606 -0.269435 0.374611
O -1.192759 1.103176 0.586201
C 1.650921 0.003524 0.769166
O 0.581025 -0.778811 -2.357516
H -2.556646 0.766464 2.039355
H -0.062374 1.181137 -1.687432
H -1.465456 -0.795664 -0.382466
H 1.697949 0.903989 -1.695957
H 1.633608 -0.545195 1.714220
H 1.666688 1.144015 1.123414
H -2.621033 2.264496 1.119690
H 0.117700 -2.348870 -1.015727
H 1.807121 -1.975439 -1.132211
H -0.856646 -0.772335 1.280568
H -3.222554 0.845795 0.363269
H 2.663550 -0.181056 0.377934