21
H12 C7 N2
C 0.270085 1.001623 -1.576394
C -0.684413 -0.374566 1.097893
C 1.824707 0.076141 0.630816
C 0.288026 -0.313447 -1.182727
N -2.592966 0.473295 -3.329298
C -1.699025 0.016846 -2.758927
N 0.535515 -0.539429 0.286007
C -0.737719 -0.786702 -2.024057
C -0.407680 0.110761 2.566855
H -1.237765 -1.688240 -1.518682
H -0.309318 1.680433 -0.958349
H -1.022169 -1.468348 1.035536
H -1.303710 0.005248 3.181767
H 2.604815 -0.075823 -0.222173
H 0.942629 1.289783 -2.319962
H 2.198660 -0.446619 1.499135
H 1.801883 1.117826 0.862307
H -0.080072 1.084126 2.608329
H 0.242289 -1.147703 -2.534998
H -1.482575 0.221233 0.740617
H 0.354373 -0.526254 3.084096