21
H12 C7 O2
C 1.186603 -1.037022 -1.877753
C 0.939771 0.068977 -0.048400
O 1.394468 2.503430 -2.103644
C -2.360268 -0.165436 2.037767
C 1.569546 0.283383 -1.383103
O 0.101009 -1.299304 -2.178701
C -0.973338 -0.608065 1.516512
C 1.183309 1.485752 -2.379645
C -0.547425 0.031166 0.268714
H -2.905078 -1.061296 2.547689
H 1.394395 0.899281 0.656425
H -3.051184 0.168867 1.328195
H 1.384368 -0.736367 0.474870
H 2.719700 0.418919 -1.312625
H -0.251474 -0.352617 2.296100
H 2.016254 -1.753253 -2.039013
H -0.790183 -1.671093 1.481398
H -1.199597 -0.325902 -0.538938
H 0.750787 1.108888 -3.229289
H -0.783373 1.145867 0.242015
H -2.394477 0.589698 2.732822