21
H12 C8 O1
C -0.631367 -1.690726 0.259432
C 1.353187 -2.458775 0.538464
C 0.018873 0.410773 -0.178005
C 0.048414 -0.845155 -0.374205
C -0.706337 1.536294 0.466477
C 0.423916 -2.176826 -0.612417
C -1.090044 2.586968 -0.511506
C 0.581556 -0.899477 0.918985
O 0.543546 0.457688 -1.450953
H -1.682104 -1.929394 0.490765
H -0.686151 1.498981 1.493607
H 0.410615 -2.703132 -1.550938
H 2.426048 -2.297745 0.462469
H -1.768641 2.239632 -1.255046
H 0.516104 2.433769 0.635665
H -1.928398 0.833023 0.463917
H 0.968102 -0.400287 1.790441
H 1.429142 1.013588 -1.237221
H -1.722691 3.402336 0.104971
H 0.971575 -3.303535 1.151240
H -0.274516 3.135305 -1.170601