21
H12 C8 O1
C 1.299558 0.331449 0.183396
C 2.558269 -1.437646 -1.091457
C 1.438839 -1.121917 -0.185861
O 0.122014 -1.209988 -0.890667
C -2.334761 -0.261897 0.647552
C -0.575911 -0.324311 -0.517187
C -1.246263 0.546830 0.421028
C -1.951841 -0.137773 -0.764163
C -1.057523 1.949601 0.996221
H 1.538557 1.050718 -0.591061
H 1.695278 0.605143 1.074320
H 2.709997 -0.728283 -1.971662
H -3.369168 0.131507 0.919896
H -2.146452 -1.296846 0.964327
H -2.728343 0.112491 -1.535171
H -0.756306 1.876868 1.989071
H -2.087532 2.387291 0.920297
H 3.449340 -1.414941 -0.546535
H -0.295852 2.631573 0.539456
H 2.480853 -2.454688 -1.509534
H 1.309205 -1.763873 0.674905