16
H7 C6 N1 O2
O 1.667819 -1.491180 1.191506
C 0.477983 -1.607165 0.228972
C -0.816407 0.850812 -0.776966
N -1.185037 1.845757 -1.531448
C -0.285692 -0.564603 1.086046
C -1.161235 0.464270 0.514312
C 1.139637 -0.140814 1.047547
C 1.100817 -0.426599 -0.464470
O 0.306486 0.092723 -1.394756
H -2.239700 1.437562 -1.727448
H -2.132185 0.872300 0.879383
H -0.746123 -0.968850 2.055562
H 1.664198 0.640067 1.738178
H 2.096539 -0.548944 -0.985918
H -0.304683 2.221529 -1.775100
H 0.217217 -2.593521 -0.105368