22
H13 C7 N1 O1
C -2.407731 0.480238 -1.374382
C 1.079709 -0.154815 0.028557
C -0.287901 -0.225947 0.542726
C 1.788043 1.179223 0.418852
N -1.079021 0.541038 -1.810009
O -0.607629 -0.787246 1.586357
C -1.393985 0.559656 -0.221543
C -2.434042 -0.533837 -0.321743
C 1.858487 -1.394670 0.493099
H -0.235416 0.023727 2.095883
H 1.277589 2.025286 0.079530
H -0.673427 1.299088 -2.232469
H 2.782993 1.286574 0.020045
H 2.046827 -1.405157 1.589301
H 1.892301 1.309480 1.515677
H -3.265994 -0.483216 0.315208
H 1.372616 -2.295801 0.175983
H -3.191784 0.971117 -1.756396
H 2.948668 -1.325998 0.185595
H 1.096570 -0.204977 -1.063369
H -2.316132 -1.557990 -0.704347
H -1.608078 1.525094 0.324123