18
H9 C8 N1
C 0.031163 0.034327 -1.626645
C -1.581232 -0.364529 1.222282
C 1.598277 1.278607 -0.545940
C 0.057510 -2.327917 -0.837960
C 0.086776 1.367820 -0.950736
N 0.021330 -3.402548 -1.061826
C 0.059352 -0.933884 -0.595604
C -0.088631 -0.301158 0.770653
C 0.426316 1.146947 0.512960
H 0.301127 1.856000 1.282557
H 0.562208 -0.817796 1.478801
H -2.274621 0.140671 0.603987
H -1.681708 0.130136 2.306213
H 0.187243 -0.090074 -2.665034
H -0.465543 2.336211 -1.254299
H 2.409682 0.434710 -0.436865
H -1.864310 -1.383431 1.389468
H 2.010940 2.100555 -0.894451