18
H9 C7 N1 O1
O 0.844844 1.934736 -1.286221
C 0.294190 1.170097 1.007008
N 0.483708 -0.202427 -0.820001
C 0.092692 -0.765479 -2.118534
C -1.193780 0.946656 1.131156
C 0.569369 1.112781 -0.531665
C 0.010066 -0.928842 0.384365
C -1.365722 -0.377724 0.750700
C 0.897180 -0.178538 1.420585
H 0.757883 -1.624968 -2.384919
H -2.287288 -0.890093 0.715660
H 0.155965 -1.976268 0.241386
H 0.255827 -0.014391 -2.882806
H 0.646583 -0.452550 2.448671
H 1.990781 -0.297872 1.232332
H -1.919663 1.647829 1.394817
H 0.737016 2.051452 1.503868
H -0.969676 -1.154409 -2.206414