16
H8 C4 N4
C -1.701572 -0.776358 0.040120
N -0.212932 1.747511 0.006965
C 1.747121 2.024869 0.706695
C 0.394691 0.452468 0.191577
N 1.575479 0.657307 0.726182
N 0.695886 2.675295 0.316705
C 0.427914 -1.795540 -0.597120
N -0.245412 -0.722933 -0.022357
H -2.070517 -1.823660 0.071029
H -1.153815 1.919513 -0.348339
H 1.547575 -1.719646 -0.214497
H -2.064644 -0.252806 0.912383
H 0.128387 -2.787455 -0.255446
H 2.597812 2.536153 1.031979
H -2.153049 -0.333888 -0.858666
H 0.487111 -1.800847 -1.707213