19
H10 C7 O2
C -0.806089 0.054590 0.076869
C -2.271415 -0.165869 0.300109
O 2.722534 -1.021667 0.147017
C 0.257792 -1.028839 0.509774
C 1.002471 0.751473 -0.506714
O 0.329960 -1.517518 -0.955031
C -0.106381 1.469209 0.326098
C 1.589870 -0.250501 0.501433
C 0.003252 -0.085210 -1.181187
H -2.533681 -0.148798 1.351393
H 1.763503 1.402378 -1.012257
H 0.111572 1.899457 1.320764
H 1.797504 0.205561 1.481961
H -2.857977 0.662207 -0.229326
H -0.654636 2.148453 -0.317314
H 0.068103 -1.841851 1.192013
H -0.366716 0.088590 -2.231177
H 2.480200 -1.461188 -0.654158
H -2.529863 -1.160493 -0.120292