16
H7 C6 N3
C 0.440181 -0.060406 -1.249880
N -0.704371 0.108620 0.790582
C -2.313280 0.083916 -0.693326
N 2.774640 -0.367593 -0.222552
C 1.382908 -0.171489 -0.096312
C -1.989701 0.237388 1.405801
C -0.942042 0.031274 -0.533192
C 0.715775 -0.030524 1.109970
N -2.942373 0.249067 0.548354
H 3.124029 0.110909 -0.933520
H -2.871335 0.141513 -1.591166
H 3.244217 -0.190788 0.665919
H 0.501202 -1.028872 -1.864015
H 0.622460 0.716839 -1.881934
H -2.050471 0.253188 2.463952
H 1.008165 -0.083067 2.081307