21
H12 C7 N2
C -1.182599 -0.027842 0.446263
N 1.015976 -0.800691 0.748128
C 0.153698 -1.493128 1.655328
C -2.439908 -1.518888 2.100893
C 2.223256 1.668300 -2.378495
C 0.957639 1.021017 -1.970207
N 0.827251 1.149961 -0.537044
C -1.253366 -0.970428 1.390350
C 0.282854 0.155772 0.122865
H 2.333266 1.707766 -3.507056
H -1.980139 0.532891 -0.031854
H 2.286896 2.682900 -2.049173
H 0.432570 -1.264324 2.719591
H 0.459839 2.069232 -0.363990
H 0.165531 -2.537513 1.562485
H 0.065120 1.527066 -2.470399
H -3.377500 -0.983656 1.760766
H -2.364217 -1.382248 3.177743
H 0.895468 -0.079608 -2.292121
H 3.070859 1.079811 -1.991751
H -2.572468 -2.536378 1.907728