15
H7 C5 N1 O2
C 0.313747 0.080399 -1.360339
C 1.019544 0.687406 1.032405
C 0.026475 -0.044285 0.130878
C -1.569260 1.067735 -0.876219
O 1.299417 -0.343594 -1.979225
C -0.138321 -1.500988 0.497791
O -0.642163 0.846715 -1.934118
N -1.367943 0.632258 0.215112
H 0.788610 0.624018 2.033563
H -0.333276 -1.585119 1.567824
H -2.514802 1.592559 -1.202149
H 1.043267 1.764465 0.737060
H 0.912208 -2.021023 0.349672
H 1.999004 0.272941 0.858629
H -0.836495 -2.073508 -0.070894