23
H14 C9
C 1.350245 -1.307131 0.114400
C -1.642196 -1.561984 -0.032845
C -0.793640 -1.395041 -1.277686
C 0.951383 1.097322 0.522451
C 0.034332 2.002179 -0.300804
C -0.299990 0.275333 0.913397
C 1.885744 0.128242 -0.138681
C -1.173007 1.464736 0.529121
C -0.217394 -0.992012 0.081416
H -1.820123 -2.464140 0.361915
H 2.924774 0.080228 0.358923
H 1.575564 -2.032368 -0.640693
H -0.474373 -2.284209 -1.667836
H -0.076156 1.790374 -1.311877
H 2.054955 0.320627 -1.164918
H -0.920362 -0.640414 -1.940952
H -1.402583 2.145160 1.435994
H 1.372216 1.636373 1.375458
H -2.153804 1.267272 0.030107
H 0.219365 3.134218 -0.177953
H -2.524045 -0.885102 -0.083350
H 1.589465 -1.725877 1.065725
H -0.460385 -0.053790 1.948665