16
H7 C6 N1 O2
C -0.483198 1.393376 -0.532000
C -0.037948 -1.084433 -0.253350
O -0.373667 2.154815 0.663753
N 1.346121 -1.299764 0.338137
C -0.289304 -0.309328 1.081985
C -1.129559 0.900968 0.681490
C 0.550802 0.300119 -0.763526
C 1.218457 0.095869 0.625455
O -0.733304 -1.953876 -0.929114
H -0.474696 -0.854783 1.949513
H -2.220690 0.993421 0.795673
H -1.501656 -1.589934 -1.383023
H -1.041874 1.826307 -1.368397
H 1.965241 -1.591931 -0.347487
H 1.205981 0.384734 -1.703788
H 1.999300 0.634450 1.144624