15
H6 C4 N4 O1
C -0.067546 -0.487300 0.845693
C -1.118585 -0.723736 -0.171064
C 1.108665 0.934554 -0.462755
O 0.195478 0.763689 -1.519126
N 2.129600 1.693704 -0.829704
N -0.252884 -0.988610 2.105026
C -0.881977 0.018935 -1.316021
N 1.061942 0.335394 0.693120
N -2.099102 -1.539141 0.164915
H -2.759718 -1.620774 -0.575589
H -0.967167 -1.756156 2.084995
H 0.515325 -1.068986 2.661115
H 1.947345 2.482642 -1.469701
H 2.674190 2.013523 -0.007417
H -1.485577 -0.057731 -2.203506