17
H8 C5 N2 O2
C 1.259261 -2.011732 0.420160
C 0.378216 -0.765587 0.799965
O -1.245900 -0.222565 -0.976628
C 0.635379 0.655957 0.894666
C -1.201583 1.138563 -0.559295
O 1.696211 -2.093952 -0.865450
N -2.314683 1.875085 -1.124038
C -0.352812 1.628077 0.345729
N -0.305795 -0.670661 -0.351809
H -2.675230 1.259035 -1.949180
H 1.447174 1.033836 1.455780
H 2.147278 -1.206796 -1.018159
H 0.241659 -1.023856 2.028795
H 2.164634 -2.120882 1.136440
H -0.359236 2.693522 0.596355
H 0.541282 -2.838109 0.566666
H -2.055862 2.670031 -1.400014