17
H8 C7 O2
O -2.289470 0.696480 -1.403656
C 0.283697 -0.803128 0.489125
O -0.146871 0.362816 -2.668658
C 2.345441 -1.571952 1.915677
C 1.221524 -1.208671 1.151821
C -0.876432 -0.428434 -0.322368
C -0.644265 1.727946 -0.412376
C -0.792460 0.596463 -1.474079
C -1.786221 0.772569 0.075074
H -1.481066 -1.360229 -0.563522
H 0.232572 1.801469 0.129980
H -2.536515 0.893674 0.800350
H -1.046993 2.755908 -0.782228
H -0.617602 0.857142 -3.310400
H 2.695972 -2.594015 1.644972
H 2.227590 -1.549209 3.023043
H 3.211087 -0.948841 1.707251