15
H6 C8 O1
C 2.879588 -2.368809 0.696984
C -1.647315 0.285976 -0.804266
C 1.778261 -1.826138 0.629134
O 0.533874 0.090009 0.010479
C -0.320717 2.236302 -0.191703
C 0.462407 -1.208254 0.561690
C -0.046014 3.410934 -0.428622
C -0.628080 0.815156 0.112999
C -2.468440 -0.200712 -1.417684
H -0.151834 -1.853726 -0.001631
H 3.821799 -2.760637 0.791226
H -3.245106 -0.575908 -2.091274
H 0.013678 -1.181176 1.609733
H -1.032723 0.759211 1.147721
H 0.050620 4.377769 -0.624790