22
H14 C8
C -0.340052 1.242733 -1.193846
C -1.686835 -1.389213 -2.126834
C 2.464845 0.637267 3.652685
C -0.467254 -0.010967 -0.308749
C -0.523934 -1.318271 -1.207412
C 0.672836 -0.111803 0.730729
C 0.683003 1.014850 1.812605
C 1.682386 0.853011 2.784256
H 0.766587 1.959060 1.237729
H -0.401970 2.153040 -0.579109
H 0.446960 -1.342096 -1.794599
H -2.582162 -1.345425 -1.581419
H -1.671316 -0.651649 -2.912978
H 0.608697 1.260688 -1.787143
H 3.205314 0.498669 4.378319
H -1.173305 1.294182 -1.953661
H -0.325598 1.064389 2.276931
H -1.651369 -2.387929 -2.651240
H 0.567400 -1.114218 1.252069
H -1.410325 0.036026 0.228183
H 1.615570 -0.125781 0.249400
H -0.479487 -2.216575 -0.505960