19
H10 C7 O2
O -2.470090 -0.684143 -0.571955
C 1.098501 1.667336 1.653987
C -1.494443 -0.682541 0.463695
C 1.173208 -0.806964 -0.897482
C -0.532132 0.515204 0.475820
C 0.127553 0.348956 -0.869303
C -1.271690 -1.603101 -0.666679
C -0.184574 -0.989103 -1.551420
O 0.299462 0.448614 1.547130
H 1.996359 -0.701314 -1.565329
H 0.550095 2.576802 1.508564
H 0.399461 1.286485 -1.544215
H -1.176488 1.377449 0.393835
H -0.175727 -1.084339 -2.623837
H 1.389567 -1.313381 0.030884
H 1.687928 1.684129 2.594010
H 1.861121 1.634289 0.819817
H -1.488368 -2.571605 -0.664298
H -1.789728 -1.102791 1.466768