21
H12 C8 O1
C -2.292846 -0.180995 -0.640999
C -0.906258 -0.868927 1.553949
C 1.019083 1.280860 -0.531060
C 0.258776 0.123799 -0.058393
C 0.650296 -1.359971 -0.330257
C 0.592010 -0.869216 1.120560
O 1.955130 1.895089 0.352678
C 2.363695 1.365010 -0.809739
C -1.234419 0.176074 0.369193
H 0.380628 2.092564 -0.998441
H -1.059520 -0.419853 2.512550
H -1.420437 1.140030 0.782684
H -0.100653 -2.025305 -0.771896
H 1.376797 -0.833783 1.752242
H 2.752740 2.077075 -1.576749
H 2.987212 0.422769 -0.882220
H -3.247344 -0.152082 -0.150501
H -2.277278 0.569001 -1.375172
H -2.136969 -1.139433 -1.094333
H -1.368258 -1.869518 1.498813
H 1.707579 -1.423157 -0.722922