14
H5 C5 N1 O3
C -0.081340 0.112535 -0.782811
C -0.821016 0.186479 1.500792
C 0.986217 -0.804912 -1.382046
O -0.238057 1.366713 1.652049
C 0.420322 1.886912 0.626327
N 0.586210 1.361294 -0.525101
C -0.682792 -0.581329 0.388010
O 0.939351 -1.992624 -1.337093
O -1.089149 -1.841622 0.336367
H 1.793569 -0.285606 -1.936122
H -0.479041 -2.296345 -0.233520
H 0.868235 2.804979 0.897609
H -1.362487 -0.175274 2.399993
H -0.840001 0.258810 -1.604432