20
H11 C7 N1 O1
O -0.770241 -0.936917 -3.232114
C 0.795229 0.104622 -0.080565
N 0.098153 -0.302995 -2.432203
C 1.171564 1.608737 -0.346503
C -1.170038 -1.325405 -0.526562
C -0.060695 -0.499608 -1.203137
C 0.295812 0.474201 2.500275
C -1.165264 -0.913789 0.945497
C -0.108299 -0.134991 1.162459
H -0.568147 -0.620941 -4.158486
H 1.261969 0.225093 2.789159
H -1.869886 -1.247746 1.693653
H 1.667886 1.670855 -1.337202
H 0.211142 1.576274 2.482675
H 1.790216 1.916673 0.506153
H -0.352640 0.128034 3.307665
H -1.010062 -2.379936 -0.697001
H 0.304330 2.234898 -0.382389
H -2.215003 -1.134429 -1.000945
H 1.693950 -0.442581 0.009587