18
H9 C6 N1 O2
C 0.699003 -0.586725 1.525893
N 1.641271 0.006660 -0.529462
C -1.168557 0.468106 -2.201304
O 1.749401 0.461064 1.721251
C -0.755116 0.123099 1.534137
C 0.592154 -0.830020 0.037889
C 2.110800 0.663002 0.442075
C -0.836295 -0.252532 0.037553
O -1.127290 0.787925 -0.835412
H -0.703960 1.208929 1.713548
H -0.247409 -0.006253 -2.563797
H 0.842106 -1.290634 2.316615
H -2.008983 -0.221280 -2.409316
H -1.600087 -1.084978 -0.169817
H 2.911897 1.374720 0.287738
H -1.294093 1.365785 -2.776510
H 0.699917 -1.872439 -0.263395
H -1.504769 -0.314417 2.132291