17
H8 C7 O2
O 1.436616 0.679221 -4.191638
C 0.518505 -0.540746 -2.462961
C -0.785339 -0.519682 1.085039
C -1.322135 -0.562449 2.410615
C 0.127411 -0.520993 -1.348472
C -0.402107 -0.465860 -0.042069
C 0.956804 -0.608966 -3.874893
C -0.163806 1.286478 3.351120
O -1.408042 0.682210 3.097333
H 0.379895 1.593902 2.441926
H 1.733614 -1.350242 -3.968094
H 1.810289 0.540311 -5.244953
H 0.447691 0.633746 3.985422
H -2.341939 -1.010644 2.447850
H 0.101958 -0.806613 -4.545747
H -0.384192 2.200083 3.843449
H -0.705198 -1.229739 3.016050