17
H10 C6 O1
C -0.838434 -0.211800 1.317694
C 0.918072 0.739760 -0.391342
C 0.322538 2.126625 -0.434013
C 0.052516 -0.448638 0.014920
C 0.833151 -1.721452 -0.144675
C -1.406163 -0.415243 -0.161689
O 0.410003 1.436256 -1.665618
H -1.924333 -1.359513 -0.350403
H -0.846648 0.742141 1.753277
H 1.135259 -1.872663 -1.132462
H 1.926663 0.583131 -0.365389
H -0.625727 2.389091 -0.070657
H 0.102398 -2.566132 0.161485
H -1.913830 0.398054 -0.606192
H -0.930213 -1.057763 1.973970
H 1.694674 -1.751135 0.493188
H 1.090083 2.989310 -0.392102