18
H10 C5 N2 O1
C 1.088113 0.291301 1.485890
N -2.659065 0.412266 -1.279640
C -1.651848 -0.364717 -1.021594
C 2.076978 1.026706 0.575676
C 0.026995 -1.530680 -0.887715
N -0.228220 0.256893 0.939779
C -0.544640 -0.452105 -0.116815
O -1.200219 -1.434358 -1.831840
H -0.711441 1.279955 1.002162
H 1.331613 -0.765496 1.676081
H 1.740453 2.080313 0.400557
H 1.059234 0.804462 2.514997
H 3.024563 1.068325 1.115476
H -0.001275 -2.565960 -0.418359
H -3.077832 0.783996 -0.452764
H -3.375706 -0.002947 -1.850612
H 0.936132 -1.389226 -1.480736
H 2.166144 0.501303 -0.370551