18
H9 C7 N1 O1
O -1.220665 0.225506 -0.940941
C 0.167875 -1.773545 -0.817368
N 1.181197 1.756570 -0.805241
C 0.077501 -0.369874 -1.124224
C -0.748444 0.349761 1.435754
C 1.085232 0.450263 -0.250765
C -1.746881 0.206155 0.374778
C 0.556896 0.477739 1.162455
C 0.304170 -2.958909 -0.575305
H 0.527190 -3.970809 -0.417533
H 1.946691 -0.103147 -0.266209
H 2.001349 2.241611 -0.300929
H 0.255430 -0.180939 -2.168334
H -2.330681 -0.660333 0.527669
H -2.455498 1.121882 0.362751
H 0.361631 2.357228 -0.664259
H 1.202273 0.485015 1.988034
H -1.165284 0.345829 2.479665