12
H4 C4 N2 O2
O 0.078431 -0.919888 -0.870807
N -0.483583 1.161749 -1.710226
C -0.138044 0.343192 -0.620921
C -0.050986 0.873927 0.674768
C 0.452607 -1.810460 0.177587
N 0.607125 -1.367075 1.362208
C 0.317485 -0.130382 1.699909
O -0.353178 2.066515 0.985829
H 0.381965 0.220300 2.723444
H -1.400709 1.502855 -1.716565
H 0.685786 -2.766405 -0.120775
H -0.096914 0.825673 -2.584451