16
H8 C6 N2
C -0.238316 -0.527367 -0.585551
C 0.799908 -0.001090 0.105221
C 0.796591 1.155217 1.031270
N 1.530617 -1.865147 -1.145196
C 0.271639 -1.642659 -1.380898
C -1.861950 0.690053 0.450760
N -1.515332 0.123335 -0.685965
C 1.958882 -0.853377 -0.313072
H 0.807924 0.776173 2.039154
H 1.554389 1.915130 0.809815
H -1.922332 0.188406 1.350634
H -0.324401 -2.258055 -2.007979
H 2.920265 -0.750349 -0.004207
H -2.173340 -0.399316 -0.873771
H -0.212583 1.801449 0.976632
H -2.391941 1.647598 0.233127