15
H7 C7 N1
C 1.301053 0.523013 -0.013505
N -0.705679 0.963165 -0.828122
C -0.680673 -2.553030 -0.498174
C -1.120561 0.442593 2.755510
C -0.428395 -1.468279 -0.113747
C -0.749241 0.222234 1.659627
C 0.693741 1.037798 -1.397190
C -0.207205 0.002630 0.284132
H -0.796551 -3.593658 -0.779340
H 2.023788 -0.324224 -0.133542
H 0.848691 0.299900 -2.163311
H -1.343715 0.571946 -1.442022
H -1.421972 0.663081 3.745011
H 1.592384 1.206033 0.636209
H 0.994321 2.006798 -1.711511