20
H11 C7 N1 O1
C -0.010251 -0.909212 2.097463
C 0.054632 1.548213 -0.689604
C -0.350526 -0.740915 0.565767
C -1.037663 0.852452 -1.388009
N -1.273525 -1.413183 1.584505
C 1.550348 1.314223 -0.910947
C -0.849949 0.552297 0.048550
C 0.304613 -1.745603 -0.252680
O 0.449910 -1.736038 -1.440179
H -0.055000 0.065827 2.669759
H 0.562522 -2.703904 0.339654
H -1.298231 -2.402112 1.527400
H -1.617532 0.961388 0.700403
H 0.817497 -1.565787 2.349223
H -1.971773 1.360098 -1.677879
H -0.778181 0.103345 -2.080987
H 2.096490 1.481112 -0.038808
H -0.218733 2.644689 -0.369575
H 1.893487 2.007679 -1.723788
H 1.731846 0.325444 -1.310249