18
H9 C6 N1 O2
O -0.873625 0.190214 -1.234203
C 0.647660 -0.036470 0.655965
N -2.986563 1.065040 -0.758026
C -1.891814 0.666972 -0.356387
C 1.218941 -0.684281 -1.734224
O -0.245995 0.571290 1.555655
C 1.887167 -0.462167 1.369539
C -1.629199 0.607745 1.159244
C 0.404325 -0.202557 -0.606748
H 0.682849 -1.543820 -2.235320
H 1.700884 -1.169274 2.107454
H 2.215071 0.487239 1.926306
H 2.120441 -0.989336 -1.382655
H -2.087950 1.393571 1.596034
H 1.280631 0.066967 -2.539891
H -2.091794 -0.320360 1.598126
H -3.017583 1.096075 -1.813077
H 2.666549 -0.736805 0.692194