17
H9 C7 N1
C 1.161729 -0.561450 -0.356550
C 0.174958 -1.738395 -0.535348
C 0.647497 -0.121927 1.060556
C -0.012371 1.219680 0.390686
N 1.474800 0.181594 -1.227553
C -0.554275 -1.015792 0.702863
C 0.592634 1.421188 -0.998054
C -1.304487 0.301284 0.431506
H -0.014248 2.104706 1.006697
H -1.079635 -1.771719 1.377429
H 1.252325 2.242169 -1.069694
H -0.082236 1.433067 -1.859639
H -0.236444 -1.803534 -1.500790
H -2.022913 0.367163 -0.435693
H 1.267624 -0.184792 1.930396
H -1.945522 0.557204 1.316663
H 0.680531 -2.630420 -0.233491