14
H5 C4 N3 O2
C 0.589318 0.135798 0.859451
N -0.807889 0.198161 -0.951098
C 0.119574 -1.075889 -0.980178
O 0.844239 0.594351 2.068866
C 1.256993 -0.775613 0.028877
N -0.985539 1.574097 1.295784
O -1.935588 1.060042 -0.801029
C -0.508542 0.752551 0.269643
N -0.245197 1.467426 2.424353
H 0.409543 -1.312662 -1.987628
H 1.596544 -1.668859 0.486581
H 2.084791 -0.366159 -0.576084
H -0.521071 -1.900882 -0.674811
H -1.897176 1.317675 -1.462731