20
H12 C6 O2
C -1.630950 2.312171 -0.268768
C 1.225272 -0.557122 0.523953
O -0.306480 2.072539 -0.166591
C 1.227082 -1.893885 -0.155800
C -0.062530 0.094383 1.048686
C 0.076444 -2.101963 -1.224180
C -0.014526 1.494520 1.128036
O 1.527775 0.014460 -0.523839
H 0.337152 -2.834854 -2.054105
H -0.288466 -1.117912 -1.676080
H -2.207262 1.368638 -0.331182
H 0.949203 1.873004 1.350880
H -0.925191 -0.470883 0.738663
H -2.062542 2.964253 0.525377
H 1.995804 -0.456096 1.277313
H 2.234306 -2.037543 -0.696806
H -1.833027 2.878096 -1.213974
H -0.798844 -2.516307 -0.721528
H -0.667961 1.643370 1.894045
H 1.224750 -2.728835 0.545906