20
H12 C7 O1
C -0.672521 -0.745883 -0.705225
C 1.605160 -1.965326 0.589092
O 2.085522 -0.796043 1.347876
C 0.371495 -1.157272 0.385263
C 1.303552 -0.034000 0.331114
C -1.962963 1.479162 -0.421711
C 0.482232 1.209658 0.459424
C -0.584490 0.806207 -0.646752
H -0.210947 1.214409 -1.588415
H 1.958944 0.164431 -0.555076
H -1.677112 -1.170961 -0.502764
H 1.527630 -2.869640 1.234578
H -1.876427 2.547651 -0.367247
H 2.261362 -2.267996 -0.250624
H -0.231929 -1.198469 1.293967
H -0.342773 -1.089927 -1.705767
H -0.019747 1.316000 1.458232
H 0.977901 2.227174 0.270021
H -2.344122 1.121809 0.531858
H -2.650768 1.209061 -1.157834