17
H9 C5 N3
N -0.601229 1.232442 -1.192525
C -0.473566 0.710659 0.170313
C -1.544427 0.935447 1.028471
N -2.463347 1.124364 1.722897
C 0.217114 -0.688409 0.381787
C 0.276554 1.963283 -0.323266
C 1.428691 -0.965067 -0.491418
N -0.802612 -1.675505 0.160211
H -0.103537 2.834496 0.026632
H -0.949162 0.608655 -1.459588
H 2.214172 -0.184674 -0.423942
H 1.302166 1.855191 -0.341266
H -1.586739 -1.630482 0.716462
H 1.837729 -1.919442 -0.240100
H 0.533505 -0.662187 1.405183
H 1.097525 -0.921484 -1.567089
H -0.382838 -2.617266 0.427242