21
H12 C9
C 1.771318 -2.831460 0.437807
C 3.027903 -1.992217 0.103685
C -1.274320 2.717973 -0.613017
C 0.561053 -2.009667 0.552405
C -1.616293 1.519031 -0.566292
C -0.448638 -1.341331 0.681172
C -1.572111 -0.508592 0.811025
C -2.038564 0.210370 -0.554341
C -0.913321 4.151891 -0.612736
H -1.462714 0.268823 1.552908
H -1.546658 -0.354512 -1.385645
H 2.914440 -1.503563 -0.834545
H 1.933054 -3.419743 1.410596
H -2.402594 -1.186803 1.113856
H 3.188849 -1.210454 0.913540
H 1.675530 -3.656530 -0.299369
H -0.861797 4.549536 -1.699591
H -1.724461 4.782757 -0.208027
H 3.841702 -2.615176 0.044497
H -3.099948 0.121857 -0.692016
H 0.047590 4.307793 -0.155905