15
H6 C5 N2 O2
C -0.113016 -1.720211 0.334658
C -0.871330 0.857674 1.402342
N -0.583101 -0.776321 -0.656738
C 0.901878 1.140508 -0.453784
O -0.446736 -2.309538 1.181497
C -0.518706 0.671438 -0.060578
C 0.875612 -1.191911 -0.768302
O -0.633131 1.950252 1.974861
N 1.668396 -0.068626 -0.705941
H 1.231455 -1.972900 -1.351216
H 0.929429 1.875800 -1.254321
H -1.191251 -1.203703 -1.299120
H 1.431494 1.565042 0.422128
H -1.370578 -0.022066 1.922733
H -1.310394 1.204576 -0.688191