21
H12 C8 O1
C -0.138401 1.258471 -1.194696
C -0.211317 -1.921642 0.483411
C -0.160770 0.032875 -0.253862
O 0.201184 -1.612116 -1.603942
C 0.915096 2.326859 -0.900469
C 0.879989 -1.200558 -0.396431
C -0.389726 0.288442 1.279846
C -0.488610 -1.164380 1.838735
C -0.909365 -1.295506 -0.679215
H 1.901236 1.838640 -0.841538
H 0.905823 3.134472 -1.631829
H -1.476465 -1.466665 2.216135
H 0.424079 0.844550 1.772077
H 1.940505 -1.233253 -0.196469
H -0.135717 -3.048064 0.441891
H 0.024800 0.831509 -2.208935
H -1.280337 0.786386 1.479624
H -1.904453 -1.382501 -1.096841
H 0.316031 -1.442572 2.508759
H -1.143591 1.695386 -1.150003
H 0.730059 2.729697 0.133741