15
H6 C5 N2 O2
C -0.137216 0.972591 1.374293
C -0.005951 -0.275764 -0.642388
N -1.315839 1.331540 1.874604
O 0.930000 0.743746 1.960972
C -1.276656 -1.018001 -0.779756
O -0.253155 0.991381 0.022766
C 0.997708 -0.170050 -1.820545
C 1.328422 -0.885311 -0.515039
N -2.187724 -1.659861 -0.751028
H 1.329275 -2.053759 -0.518252
H 0.739510 -0.807773 -2.653937
H 1.399425 0.738431 -1.938557
H -2.180945 1.193184 1.296991
H -1.387182 1.384158 2.872067
H 2.020363 -0.484519 0.217800