16
H7 C6 N3
C -0.571646 -0.679688 -0.941550
C -1.164595 -1.169219 1.515837
N -0.839603 1.054462 0.650378
N -1.654664 -1.872801 2.310573
C 0.709368 -0.720454 -0.138469
N -0.859620 0.570562 -1.586537
C -0.997350 1.387960 -0.665122
C 1.927292 0.141536 -0.206405
C -0.586199 -0.319338 0.566653
H 0.976878 -1.848345 0.103376
H 1.571456 1.153783 -0.459209
H -0.921861 -1.584894 -1.450744
H -1.389217 1.420556 1.428620
H 2.485630 0.177893 0.764428
H 2.607091 -0.186726 -0.997732
H -1.292946 2.474724 -0.894114