17
H8 C5 N2 O2
C 0.492302 -0.499794 -0.052609
C -2.315691 1.652292 -0.864146
O -0.563526 0.560760 1.071926
C 1.751898 -0.569502 0.735406
N 1.501780 -1.327265 -0.803392
C 1.725247 -1.412112 1.952897
N -1.378565 0.640207 -1.230027
C -0.538252 0.324826 -0.174481
O 2.638452 -2.182463 2.239218
H -3.044725 1.646994 -1.627990
H -1.260449 0.435134 -2.190662
H 0.851803 -1.224649 2.602062
H 2.527553 -1.827687 -0.108561
H -2.755185 1.380298 0.108491
H 2.252824 0.367336 0.972683
H -1.808019 2.599177 -0.759697
H -0.077438 -0.563557 -1.871135