20
H11 C6 N1 O2
O 2.843484 1.443317 1.901062
C -0.131213 -0.579914 -1.167765
C 0.385573 -0.227142 0.247720
C -1.601233 -2.436131 -0.342152
C 0.152049 2.264858 0.043274
C 1.092490 1.076616 0.290168
O 0.226067 0.007605 -2.201005
C 1.697237 1.232459 1.705450
N -0.943440 -1.708542 -1.356803
H -0.574993 -0.250438 0.942356
H 0.616874 3.239200 0.023407
H 1.033811 -1.024725 0.508312
H 0.959777 1.238511 2.523700
H 1.852285 1.153938 -0.432630
H -0.880145 -3.137439 0.112959
H -0.685540 2.262293 0.847781
H -2.027258 -1.874973 0.468715
H -0.395097 2.171118 -0.932145
H -1.189489 -1.844734 -2.336726
H -2.431264 -3.005847 -0.845670