21
H12 C8 O1
C -0.779487 2.819504 -1.431425
C -0.619611 1.113411 1.608266
O -0.514529 -2.304923 -0.643899
C 1.411130 -0.114254 -1.446299
C -0.647121 1.843831 -0.697114
C 0.501559 -1.691187 0.162135
C 0.707620 -0.158083 -0.123831
C -0.538948 0.655703 0.158325
C -0.730776 -2.266845 0.742674
H 1.410107 -2.266756 0.203974
H 1.683119 0.953047 -1.662679
H -1.435824 0.035731 -0.092696
H -1.516031 1.680168 1.843942
H -0.595403 0.226847 2.383214
H 0.247800 1.726832 1.872260
H -0.578149 -3.257419 1.165067
H 2.254357 -0.702156 -1.536123
H -1.602209 -1.740342 1.148110
H 0.679042 -0.338976 -2.239446
H 1.428881 0.102870 0.648017
H -0.765511 3.682993 -2.062483