17
H8 C8 O1
C 1.891276 0.570713 1.154632
C 1.160010 -0.393714 1.336742
C 0.600522 1.397318 -2.087664
C -0.668296 0.001926 -0.089815
C 0.036426 0.733772 -1.315611
C -1.691661 -0.768652 -0.745173
O -1.204906 0.963463 0.777079
C -2.577020 -1.502260 -1.061416
C 0.210264 -1.033760 0.711744
H -0.351911 -1.473128 1.453710
H 2.066346 -0.229611 2.091351
H 2.553429 0.652303 0.510569
H -3.366237 -2.057995 -1.484372
H -1.787316 1.432889 0.291026
H 1.002628 1.888745 -2.913344
H 0.775242 -1.582643 -0.031460
H 1.351193 1.400658 1.402023