17
H8 C6 O3
O -1.028182 -1.943424 2.296396
C 1.305485 0.725772 0.502800
C -1.028334 -1.469689 1.121059
C 0.475776 -1.386766 0.835404
C -0.131718 0.699388 -0.218840
O -0.937821 1.246475 0.613965
C -0.316650 1.320579 -1.576558
C -0.319810 -0.845004 -0.167263
O 1.335777 -0.340127 1.402748
H -1.309802 1.171779 -1.984420
H 2.094465 0.770462 -0.271550
H -0.126252 2.411478 -1.583537
H -0.608579 -1.262430 -1.156955
H 0.370597 0.837347 -2.369562
H 1.355977 1.703868 1.083437
H -2.203775 -1.371536 0.813773
H 1.072840 -2.268160 0.659152