16
H7 C6 N1 O2
O 1.768603 -1.210392 -2.594615
N -1.657838 0.983204 0.744637
C -1.505534 0.064936 -0.410403
C -1.001947 -0.157540 1.534933
C 1.582078 -0.475407 -1.620213
C -0.076975 -0.115869 0.228789
C -0.214071 1.427674 0.387489
O -2.212298 -0.240148 -1.325034
C 1.009851 -0.986855 -0.250287
H -1.647229 -1.056055 1.665226
H -0.181389 2.098917 -0.459426
H 1.780873 0.641623 -1.667675
H 1.857032 -0.913826 0.492016
H -0.487286 0.160500 2.441255
H 0.280176 1.780096 1.216219
H 0.705964 -2.000888 -0.382924