19
H10 C7 O2
C 1.651773 -0.664171 2.373821
C 1.188753 -0.105347 1.359927
C -1.135942 -0.130270 -1.583759
C -0.618652 -0.227786 -0.176638
O -1.578330 -0.436068 0.750168
C -0.419702 -1.403569 -1.230632
C 0.565092 0.561887 0.308359
C 0.137873 2.007044 0.675961
O 0.907351 -1.704955 -1.480928
H -0.660984 1.985386 1.398825
H -0.293302 2.515071 -0.245147
H -0.587624 0.567462 -2.219265
H -1.233860 -0.875196 1.535026
H 2.127821 -1.155438 3.199125
H 1.292818 0.612521 -0.551596
H 0.937389 -1.791289 -2.460006
H -1.026164 -2.263925 -0.964090
H 0.958405 2.606423 1.059322
H -2.212728 -0.097776 -1.748496