15
H7 C5 N1 O2
O 2.194933 0.538249 -2.075962
C 1.500041 -0.265387 -1.511875
C -0.075464 1.412354 -0.175108
O -0.824983 -2.268595 -0.584482
C -1.114762 -1.346913 0.454477
C 0.499372 0.076448 -0.498052
N 0.133928 -0.635300 0.643933
C 0.017036 0.733141 1.237345
H 0.974352 1.057359 1.748478
H -2.030440 -0.710778 0.156802
H 1.472915 -1.356153 -1.749844
H -1.413694 -1.874927 1.334744
H -1.078284 1.575245 -0.500881
H -0.822633 0.834846 1.938622
H 0.567667 2.230402 -0.418168