15
H7 C5 N1 O2
C -2.376093 -1.102191 -0.011397
C -0.831995 -1.012691 0.149642
O -0.270872 -1.737110 0.916247
N -0.324372 -0.097482 -0.803422
C 0.972738 0.456273 -0.591201
C -0.220616 1.318502 -0.453806
C 1.894884 0.181413 0.541835
O -3.091079 -1.810352 0.744429
H 2.698601 0.919688 0.653167
H 1.388610 0.119057 1.533441
H -0.510780 1.592437 0.515114
H -0.445989 1.945017 -1.295932
H 1.457773 0.465831 -1.518629
H -2.799119 -0.437476 -0.787362
H 2.458287 -0.800923 0.407869