15
H6 C5 N4
N -0.085565 0.180411 -2.207846
C 0.322371 0.006429 1.427089
C -0.400470 -0.082041 -0.862449
N 0.577567 0.175052 0.100779
C -1.853288 -0.726455 0.718998
N 2.379989 1.071052 -1.287961
C 1.870110 0.683818 -0.273239
C -0.875881 -0.496890 1.768052
N -1.578319 -0.529738 -0.602816
H -1.191045 -0.638258 2.777828
H -2.792037 -1.059609 0.934897
H 2.515005 0.787443 0.630725
H 0.742371 0.600857 -2.400261
H 1.133278 0.158611 2.126577
H -0.764105 -0.130680 -2.850410