19
H10 C7 O2
C -0.011957 -0.812822 0.797789
C 0.030815 -0.109301 -1.213767
C 0.686960 -1.305798 -0.549514
C -1.131636 -0.072578 -0.145417
C 1.350406 0.017874 -0.522766
C -1.716603 1.272804 0.364295
O -0.146357 0.321643 -2.542618
C 1.234534 0.179014 0.951552
O 2.291743 -0.414972 1.566121
H -1.861166 -0.745933 -0.362375
H -0.703972 -0.328769 -2.996983
H 2.247429 0.243527 -1.155675
H -1.078855 1.995849 0.649163
H -0.369194 -1.359062 1.625718
H 0.975053 1.191423 1.336797
H -2.342967 1.726291 -0.502204
H 0.937554 -2.258413 -0.931974
H -2.408261 1.046684 1.182753
H 2.016440 -0.587444 2.449084