21
H12 C9
C 1.546551 0.020593 0.872588
C 0.892187 2.284362 0.438098
C -0.461087 -1.246295 -0.201409
C 1.649601 1.369477 0.222995
C 0.639910 1.948540 -0.911913
C -0.423372 1.051346 -1.413938
C -1.169624 0.052589 -0.598941
C 0.796336 -1.026781 0.631645
C -1.383859 -2.200996 0.531564
H 1.089759 -1.900560 1.182676
H 2.388116 2.183891 0.392200
H -0.927397 -3.194098 0.666721
H -2.302901 -2.432806 -0.037826
H -2.074233 -0.248404 -1.104133
H 0.472420 2.692618 1.129550
H -1.497738 0.553997 0.362260
H -0.151407 -1.755887 -1.118813
H 1.127911 2.483792 -1.699772
H -1.672046 -1.750606 1.402959
H 2.224822 -0.029181 1.663922
H -0.763983 1.144395 -2.410434