15
H6 C6 N2 O1
C -0.093632 -0.241065 -1.885043
C 0.614536 -0.359971 -0.610025
N 0.369038 1.820353 0.809318
O 1.562521 -1.174055 2.098465
C 0.816316 -0.878083 1.260542
C -0.497334 -0.129698 -2.939700
C -1.148128 -0.396520 0.684642
C 0.194429 0.359901 0.608043
N 0.025427 -1.514799 0.312752
H -1.513176 -0.608974 1.636193
H -1.829090 -0.447619 -0.110642
H 1.663070 -0.502724 -0.868268
H -0.375263 2.203024 1.507149
H 1.198161 1.916891 1.369533
H -0.986889 -0.046668 -3.872948