20
H11 C7 N1 O1
C 1.191489 -1.632597 0.211189
O 1.820755 -0.285100 -2.610263
C 0.939337 1.868811 0.035111
C -1.939205 -0.182318 0.944450
C -3.113373 0.126081 1.688881
N 1.723189 0.750828 -1.812291
C 1.012352 0.672623 -0.861958
C 0.246722 -0.651041 -0.443926
C -0.906513 -0.388064 0.277232
H -3.795214 -0.841246 1.594525
H 2.364958 -0.017267 -3.397447
H 2.095047 -1.963257 -0.486379
H 1.646010 2.585805 -0.233673
H -3.624197 0.903851 1.373676
H -0.047442 -1.160216 -1.487801
H 1.658813 -1.159002 1.090022
H -0.087580 2.233823 -0.112690
H -2.919404 0.122518 2.729407
H 1.049682 1.574245 1.026522
H 0.684577 -2.558452 0.475426