15
H7 C4 N3 O1
C -1.048294 -0.689072 1.913325
O -1.531129 -1.459750 2.818411
C 1.252240 0.234414 -0.653359
N -1.576245 0.537046 1.504521
C 0.941623 -0.595505 -1.826381
N -0.739308 1.211556 0.331021
C 0.137171 0.186544 0.381530
N 0.051676 -0.875648 1.145091
H 0.109714 -0.095164 -2.404381
H 1.468993 1.258028 -0.905662
H -1.164718 1.999929 0.019209
H 0.583687 -1.609523 -1.598884
H 1.788683 -0.632130 -2.503136
H 2.137625 -0.306271 -0.124608
H -2.411769 0.835520 1.903328