12
H4 C4 N2 O2
O -1.961494 0.170545 -0.399856
C -0.277844 1.542312 -1.112514
C 0.174402 -1.403212 1.070662
N 1.500796 -1.549002 1.253446
C 0.159538 -0.320901 0.152123
O 0.844791 1.975936 -1.255981
C 1.579000 -0.441000 0.356553
N -0.642669 0.449013 -0.417789
H -2.166638 -0.377033 0.313487
H 2.519369 -0.068434 0.056879
H -0.580754 -1.980707 1.544665
H -1.148487 2.002469 -1.561680