17
H8 C6 O3
O -1.160409 0.640427 0.137873
C 0.280253 -0.431224 1.638632
C -0.499900 -0.262931 -1.988595
C -0.450065 -0.570647 0.345135
C 0.312372 -0.811952 -0.945404
O -0.883888 -0.545536 -3.042005
C -1.181013 0.999528 -1.258102
C 1.340519 0.655417 1.803603
O 1.708396 -0.703751 1.641083
H -0.588391 1.854807 -1.442326
H -0.235518 -0.688746 2.536015
H 1.504260 1.254057 0.967071
H 0.512955 -1.930296 -1.103156
H 1.468994 1.086087 2.740439
H -1.186718 -1.396430 0.472874
H -2.233969 1.162370 -1.576246
H 1.292111 -0.311174 -0.926874