23
H14 C9
C -0.622989 -1.083085 -0.588770
C -0.682627 1.322608 -0.911992
C 0.788629 -1.538784 -0.071703
C -0.457185 0.233268 0.169848
C -0.715202 0.581968 -2.247051
C 1.058659 -0.077792 0.325749
C -1.319650 0.423606 1.410248
C 1.862475 0.256789 1.559431
C -0.715934 -0.737608 -2.038976
H -0.685129 -1.535015 -2.759610
H -1.208405 -0.356329 2.093841
H 1.624323 0.368088 -0.599539
H -0.702179 1.071346 -3.189757
H 0.022972 2.148427 -0.896244
H 1.537179 -0.288703 2.409785
H -1.103116 1.382764 1.872396
H -1.675797 1.801816 -0.726060
H -1.455742 -1.739703 -0.225857
H 2.909976 0.053984 1.407466
H 1.760993 1.380585 1.738021
H 0.687308 -2.147723 0.864894
H 1.462624 -1.970865 -0.692644
H -2.371184 0.450374 1.096546