21
H12 C7 O2
O -0.210876 -1.913488 1.158337
C 3.263420 0.174723 0.872758
C 1.184363 0.581126 0.002408
C -1.250792 0.843346 -0.814449
C -2.226796 -1.176711 0.068139
C -2.075347 -0.374605 -1.233649
C -0.318457 0.439974 0.335050
O 1.916402 0.111644 1.110913
C -0.820057 -1.011792 0.592285
H 3.795459 -0.260433 1.783112
H -1.546724 -0.982785 -1.964141
H -2.994337 -0.761999 0.756084
H 1.330227 1.671829 -0.092378
H 3.616596 -0.265585 0.007456
H -0.516495 0.954955 1.273487
H -0.665988 1.284459 -1.634970
H -1.916762 1.650460 -0.474679
H 3.578854 1.277800 0.891316
H 1.349827 0.081370 -0.854131
H -3.065173 -0.119988 -1.684992
H -2.427332 -2.204281 -0.097947