18
H9 C7 N1 O1
C -0.662914 -0.147722 -1.777382
C 0.858943 0.341992 0.015146
O 0.591084 -0.992306 3.302702
C -0.691924 -0.875590 0.902785
C 0.737009 1.480217 -0.633545
C -0.254699 1.321594 -1.711275
C 0.651030 -0.276026 1.378786
C 0.001080 -0.812816 -0.525905
N 1.324511 -0.390412 2.334891
H 0.593359 -1.666993 -0.732405
H -1.131190 2.053115 -1.573897
H 0.166129 1.692071 -2.708939
H -1.549534 -0.228090 1.149534
H -0.339591 -0.661152 -2.647775
H 1.197403 -1.085715 4.031841
H -0.910471 -1.904482 1.271098
H 1.147016 2.435579 -0.341009
H -1.727260 -0.283275 -1.734616