18
H10 C7 O1
C -0.061306 0.187240 -1.345785
C 0.311857 -0.404639 -2.713645
C -1.146883 -0.123146 -2.378514
C 0.102760 0.079735 3.062567
C 0.087777 -0.207166 1.133019
O -0.506900 -0.862499 2.150151
C 0.128826 -0.694837 -0.149575
C 0.746322 0.888772 1.869238
H 0.580603 -1.438264 -2.696720
H -1.850873 -0.955188 -2.126343
H 0.375347 1.880810 1.779798
H -0.702456 0.654218 3.556049
H 1.834015 0.923114 1.866371
H 0.814010 0.135693 -3.390695
H 0.207749 1.234477 -1.217699
H -0.013071 -1.671973 -0.309374
H -1.680040 0.748863 -2.868812
H 0.772229 -0.375225 3.779973