17
H8 C4 N4 O1
C 2.042284 -1.267229 0.541459
N -1.871099 0.146011 -1.937272
C -1.580810 0.446067 -0.696623
C 1.758348 0.189309 0.899742
N -0.831306 -0.033567 -2.681829
N -2.562091 0.750367 0.292698
C -0.180486 0.307162 -0.557129
O 0.274004 0.089189 -1.728165
N 0.430600 0.583198 0.555429
H -2.570178 0.054405 1.077400
H 2.501379 0.864089 0.311823
H 2.991868 -1.536443 1.060820
H 1.798794 0.349012 1.921998
H -3.511884 0.819428 -0.156222
H 2.276812 -1.460831 -0.526679
H 1.307350 -1.947806 0.904156
H -2.273589 1.647603 0.718394