19
H10 C6 N2 O1
C -0.073183 -2.827000 0.247702
C 0.063101 -0.437140 -0.573929
C -0.102086 0.854979 0.110067
C -0.187197 -1.385269 0.400746
O 0.662384 2.049637 -0.265305
C -0.552840 -0.626187 1.676465
N -0.813388 0.696837 1.215786
N 0.426600 -0.483140 -1.982028
C 0.617191 2.295761 -1.702502
H 0.148627 -0.829950 2.446596
H 0.091444 2.774629 0.169990
H 0.254117 -3.065059 -0.765618
H 0.694946 -3.153669 0.930343
H -0.623041 1.414823 1.966761
H 1.186457 3.191714 -1.914575
H -1.011555 -3.310159 0.517225
H -0.374787 2.405384 -2.181278
H 1.138556 1.502779 -2.329917
H -1.545350 -1.068992 2.033461