13
H5 C6 N1 O1
N 0.050393 0.816710 -2.354558
C 0.278056 0.520835 -0.076168
C -0.419815 -0.463775 -0.551181
C 0.512786 1.381561 -1.280495
C -1.008431 -1.639865 0.066112
C 0.801016 0.828922 1.174379
O -0.574150 -0.312592 -1.862552
C 1.194713 1.160634 2.239775
H 1.560950 1.292719 3.263451
H -1.347884 -1.365633 1.067552
H 1.095179 2.311781 -1.301101
H -0.306711 -2.496979 0.191178
H -1.836093 -2.034313 -0.576375