16
H8 C7 O1
C -0.459401 0.733141 0.026014
C -1.023650 -0.570517 0.656303
O -0.558822 -1.674742 -0.040726
C 0.969052 0.768069 -0.279145
C -2.553957 -0.598027 0.630902
C 2.102927 0.743075 -0.542736
C 4.602121 0.740619 -1.066179
C 3.425924 0.737185 -0.786377
H -2.975169 0.185499 1.345905
H -2.917733 -1.624804 1.078798
H -0.750429 1.552712 0.777310
H 5.619064 0.701024 -1.323588
H -2.978074 -0.419119 -0.339484
H -1.048741 1.037795 -0.848393
H -0.819856 -1.652804 -0.950023
H -0.633265 -0.659133 1.661413