18
H9 C7 N1 O1
O 1.354801 -1.206509 0.926134
C -0.997475 -3.541250 -0.028503
C 0.958888 1.568722 1.486646
C -0.291000 0.020469 -1.730486
C -0.479272 -2.471560 0.169331
C 0.274416 -1.220426 0.409881
C -0.087677 1.303355 0.531328
N 1.073923 1.947109 0.071030
C -0.435423 -0.016386 -0.170252
H -1.532135 -0.158534 0.009785
H -0.686632 -0.843518 -2.191038
H 0.776728 0.153594 -1.943628
H -1.032846 1.950325 0.607795
H -0.799416 0.918991 -2.072167
H 0.731831 2.236261 2.298199
H -1.480633 -4.414998 -0.168405
H 1.717553 0.815518 1.751146
H 0.934383 2.958854 0.043211