13
H7 C4 N1 O1
C -0.541000 0.293425 -1.214504
C -0.741103 0.150667 0.866924
C -0.374176 -0.874704 -0.200914
C 0.664945 -0.450942 0.824958
H 2.380343 -0.307121 -0.081646
H -0.704739 -1.890495 -0.293252
H -1.454560 0.231527 -1.800476
H 0.844413 -1.182759 1.626181
H 0.335417 0.530463 -1.869117
H 0.098435 1.822695 0.109004
H -1.528928 0.083449 1.629188
N -0.758764 1.289223 -0.061114
O 1.779715 0.304619 0.464765