13
H7 C4 N1 O1
C 0.504111 0.460688 1.322138
C 1.055591 -1.136804 -0.484652
C -0.050463 -0.530885 0.280830
C -1.056611 0.140814 -0.672991
H 0.161913 0.751388 -2.086812
H -0.556467 -1.355795 0.828609
H -1.527889 -0.630014 -1.293213
H 1.301751 0.007974 1.915677
H 0.887500 1.370868 0.823787
H -1.828995 0.616419 -0.052357
H -0.286069 0.752584 1.994151
N 1.894283 -1.602226 -1.088115
O -0.498636 1.154984 -1.487060