17
H10 C5 O2
C -0.224124 1.374701 1.476677
C -1.141719 -0.408909 -0.249265
C 0.984690 0.022436 -0.460288
C -0.258580 0.825974 0.064514
C -0.030759 -0.896761 -1.202141
H -0.190216 -0.493891 -2.220389
H -2.149875 -0.255635 -0.631302
H -1.193393 -1.084806 0.631601
H 0.511465 2.181296 1.575235
H 1.699508 0.570858 -1.083123
H -0.487003 1.646296 -0.641169
H -0.433333 -2.749013 -1.626728
H 2.134254 -0.106827 1.111408
H -1.206477 1.780709 1.768045
H 0.034687 0.588745 2.193476
O 0.299498 -2.281896 -1.258808
O 1.651375 -0.713272 0.552263