16
H7 C6 N1 O2
O 1.395031 1.607779 -0.955664
C -1.234187 -0.815960 0.028001
C 0.297017 1.249589 -0.616770
N -1.629441 2.913362 -0.246531
C 0.859190 -0.262014 1.436132
C -0.829997 2.124018 -0.421755
C 0.088973 -0.090255 0.053466
C 0.591880 -0.699614 -1.216352
O -0.619948 -1.727569 -0.974503
H 1.970933 0.071264 1.299605
H 0.279495 -0.394200 -2.262374
H 0.944465 -1.244261 1.795195
H 1.555913 -0.874297 -1.292542
H 0.453636 0.373684 2.247712
H -2.039765 -0.092115 -0.314626
H -1.506441 -1.334671 1.026518