19
H10 C8 O1
C -0.741237 0.435205 0.650061
C -1.742094 0.799303 1.791594
C -0.413529 -0.920906 0.228834
C 0.208128 0.578934 -1.400839
C 1.357584 -0.222233 -0.693587
C 0.159370 1.264733 -0.069329
C 0.783120 -1.283135 -1.459806
C 0.805954 0.037692 0.660594
O -0.726644 -0.488183 -1.267646
H 1.311014 0.124902 1.652281
H 0.117024 2.373090 0.034310
H 0.834085 -2.302369 -1.106285
H -2.691637 0.299427 1.549610
H -0.863598 -1.673351 0.665366
H 2.480466 -0.043698 -0.865432
H -1.923469 1.910908 1.792769
H -1.367568 0.630908 2.797203
H 1.091357 -1.339647 -2.526975
H 0.333817 1.021795 -2.317528