11
H3 C3 N5
N 0.728152 0.701188 -1.022928
C -0.286129 1.531232 1.188024
N -0.442796 0.222093 0.935843
N -0.653174 -2.357356 -0.155513
N 1.021496 1.885030 -0.661106
C -0.095399 -1.573183 -0.756931
C 0.053924 -0.093084 -0.271952
N 0.353889 2.367698 0.439488
H -0.682115 1.913991 2.191966
H -0.672375 -3.335938 -0.607524
H 0.365116 -1.525913 -1.732647