21
H12 C8 O1
C -0.781144 2.020530 0.902631
C 2.795451 -0.242643 -0.333429
C -0.683624 0.685335 0.133727
C 0.451721 -0.239478 0.098250
O 1.705186 -0.500536 0.488031
C -0.567451 -1.131324 0.862171
C -1.246122 -1.840889 -0.290271
C 0.177358 0.577124 -1.037219
C -1.651826 -0.392735 0.154755
H -1.181551 2.742284 0.279693
H -0.734800 -2.106549 -1.108378
H -1.312495 1.956859 1.772135
H -1.869886 -2.653636 0.131221
H -0.571013 -1.406919 1.841569
H 3.653546 -0.806843 0.052252
H -2.756579 -0.259689 0.282114
H 0.838537 1.312104 -1.324488
H 3.016288 0.848939 -0.381859
H 2.605142 -0.627829 -1.400927
H 0.229676 2.385780 1.146235
H -0.282350 0.127602 -1.967650