19
H10 C7 O2
C -0.500922 0.384487 0.003837
C 1.275903 -1.366579 -0.881829
C 0.167526 1.099411 1.189759
C 0.063156 -1.078043 -0.085292
C -0.660791 -2.629495 1.966570
O -1.196709 2.303828 -1.127196
C -0.328100 1.212887 -1.181796
C -0.330084 -1.945014 0.986484
O -0.122985 -1.672871 -1.400249
H -1.073166 2.900805 -1.813150
H -0.232083 2.075882 1.357673
H 0.723003 1.545829 -1.311074
H -0.554293 0.683706 -2.148962
H -0.030079 0.584775 2.159561
H 1.774645 -2.302987 -0.646662
H 1.796322 -0.577661 -1.326209
H 1.179918 1.164747 1.075247
H -1.461124 0.344956 0.186450
H -0.930282 -3.091770 2.813257