18
H10 C6 O2
C -2.066902 0.153538 -0.224326
C 1.324972 0.511075 0.407433
O 0.597083 -1.686512 -0.613231
C 1.213381 -0.894506 -1.622365
C 1.550689 -0.928079 -0.203430
C 0.091493 0.779791 1.051332
O 0.455596 1.546633 -0.096149
C -1.197793 -0.015204 0.969483
H -0.986751 -1.081198 1.186244
H 1.986245 -1.156676 -2.354083
H 2.464121 -1.403237 0.196026
H -2.807772 -0.657735 -0.360489
H -1.494284 0.170799 -1.195958
H 0.482479 -0.221178 -2.166842
H 0.221061 1.404637 2.024553
H -2.613854 1.146484 -0.342151
H -1.866488 0.259138 1.853808
H 2.244127 0.967500 0.635334