21
H12 C7 N2
C 1.626236 -1.650720 1.855283
C -1.234918 -0.334622 -0.725716
C -0.938264 2.177172 -1.721861
C 0.099246 1.156308 0.506161
N 0.051605 -0.008556 -1.397992
C 1.220732 -1.382800 0.397308
N -1.198228 -0.823970 0.552546
C 0.127181 -0.427006 0.233518
C -0.569152 1.013720 -0.880426
H -0.890979 -2.074657 0.622397
H -1.442499 1.808968 -2.666802
H 1.824346 -2.722687 2.151973
H 0.760407 -1.355757 2.515280
H 2.027660 -0.929566 -0.130356
H -2.034945 -0.715508 -1.443255
H 1.150126 -2.296301 -0.159068
H 1.051824 1.636553 0.460188
H 2.447116 -1.123167 2.090825
H -1.564973 2.856680 -1.236042
H -0.554542 1.476266 1.332183
H -0.133332 2.694427 -2.137178