17
H8 C4 N4 O1
C 1.852191 -1.005476 0.301394
N -0.457719 1.416445 0.143239
N -0.043842 -1.968815 -0.688644
N 2.436355 -2.275980 0.171281
C -1.889365 1.918109 0.112271
N 2.027641 -3.142504 -0.438691
C 0.385025 -0.904655 -0.118970
C -0.525223 0.121043 -0.186375
O 0.711686 -3.167018 -0.653338
H -2.436221 1.533597 -0.754745
H -0.030417 1.993171 -0.762007
H 0.554876 1.419225 0.665065
H -1.493369 -0.175832 -0.485988
H -2.442341 1.454448 1.006644
H 2.515805 -0.265604 -0.182925
H 1.934172 -0.742670 1.366131
H -2.123396 2.902033 0.183119