21
H12 C8 O1
O 1.106048 1.462818 -0.109838
C 0.862933 0.018648 -0.113677
C 0.921127 -0.077353 1.391141
C -1.228849 -1.496881 -0.153710
C -1.122445 1.287752 -0.663981
C -0.097788 1.871490 0.391803
C -0.450119 0.584604 1.290134
C -0.669014 -0.053797 -0.053297
C 1.617513 -0.463876 -1.386907
H 1.547759 0.284123 2.070266
H -2.165257 1.565697 -0.474942
H -0.105751 2.836730 0.799308
H -2.169969 -1.519113 -0.695814
H 0.867430 -1.167888 1.689582
H 1.598858 -1.614709 -1.269970
H -0.587231 -2.257771 -0.713331
H -1.065431 1.411586 -1.733166
H 1.085769 -0.232154 -2.292458
H 2.596964 -0.174322 -1.408469
H -1.143312 0.587183 2.100757
H -1.372136 -1.998144 0.809396