21
H12 C8 O1
C 0.489479 1.266080 -1.428084
C 1.034003 -0.303808 0.597616
C -0.683584 -1.360792 0.899463
O -0.345389 -1.000722 -1.803797
C 0.320846 -0.023096 -0.880614
C -0.997814 -0.362204 -0.157770
C 1.078402 0.654463 1.598323
C -2.365231 -0.089034 -0.459644
C 0.868309 -1.269127 -0.653706
H 1.895938 1.382592 1.570860
H 2.279211 -0.740549 0.784038
H -2.689147 -0.014268 -1.476675
H 1.319654 -2.087636 -0.838837
H 0.246193 1.466624 1.545589
H -3.043935 0.200236 0.365789
H 0.687089 1.089345 -2.581475
H 1.125660 0.166087 2.530706
H -0.793805 -2.353126 0.843345
H 1.348317 1.886187 -1.267511
H -0.461364 1.906859 -1.492538
H -1.240705 -0.959582 1.864234