20
H12 C6 O2
C -0.362885 0.718159 1.046808
C 0.779001 -1.639340 1.274259
C -0.879237 0.238288 -2.648716
C -0.130481 -0.032632 -1.329962
C -0.104814 1.076894 -0.421536
O -0.961073 -0.636590 -0.502998
C 0.838539 -0.152430 1.350919
O -0.421284 1.995678 1.603391
H -0.357210 1.035863 -3.216225
H -1.385822 0.264106 1.287600
H 0.063249 2.009650 -0.723487
H 0.876372 -0.482429 -1.584061
H 0.340948 -2.110790 0.367224
H 1.849411 -2.063557 1.333440
H 1.033011 0.092721 2.380234
H 1.760757 0.173249 0.754579
H -0.954813 -0.672564 -3.235815
H -1.963948 0.512420 -2.419284
H 0.179584 -2.056901 2.036453
H -0.762078 1.917694 2.539346