17
H8 C6 N2 O1
C -0.969125 0.260788 0.175476
N 2.532665 0.260115 -0.334762
C -0.626247 -1.267318 -0.360811
C 0.296560 1.054850 0.374591
O -2.101763 1.061223 -0.263887
N 0.419480 -0.888167 -0.959611
C 1.208483 0.153346 -0.337855
C 3.563406 0.352661 -0.443884
C -1.200818 -1.024641 0.890457
H -0.717850 -2.401755 -0.768368
H 0.238045 1.973785 -0.009656
H 4.480911 0.564391 -0.535670
H -2.891953 0.697018 -0.125390
H 0.665405 1.217267 1.513786
H -1.328492 -0.415358 -1.864730
H -2.209541 -1.314903 1.067620
H -0.684192 -1.033290 1.867792