17
H8 C5 O4
O 1.104703 1.423579 -0.751806
C -0.128449 0.810806 -0.774793
C 0.152410 -0.768481 0.451403
O 1.085170 0.966548 2.038917
C -0.885306 0.177597 0.673537
O 0.641941 -1.948860 0.645516
C -0.052908 -0.602415 -1.188924
C 0.179305 0.221690 1.921021
O -1.170816 -1.157231 -1.815579
H -1.834275 -0.388763 0.760287
H -0.861622 1.447141 -1.492509
H -1.467888 1.086776 0.922831
H 1.630909 -1.764362 0.608628
H 1.013939 1.694031 0.205666
H -1.419390 -0.715176 -2.528389
H -0.151365 -0.314288 2.794851
H 0.880044 -0.794653 -1.713835