13
H5 C4 N3 O1
N 0.204791 -1.230776 -0.593431
C 0.095348 0.055080 0.268437
C -0.661685 -0.452352 -1.295183
N -1.033777 0.645436 -0.577351
C -0.359113 -0.254467 1.727029
O 2.329299 0.545700 -0.349552
C 1.349102 0.850519 0.115271
N -1.096390 -1.135432 2.182141
H 0.057166 0.465824 2.495420
H -0.106165 -2.050961 -0.239159
H 1.201616 1.907466 0.501340
H -0.757807 1.535740 -1.067670
H -0.977888 -0.598231 -2.328516