16
H8 C6 O2
C -0.166030 0.511284 -1.508940
C -0.750129 -0.677091 1.643232
C 1.779730 0.074417 -0.073103
C -1.268231 0.405029 -0.564777
O -0.866050 -1.750941 0.838306
C -0.533353 -0.469817 0.315657
C 0.589839 -0.493327 -0.707695
O -2.471515 0.661930 -0.493954
H 2.172631 -0.541570 0.777569
H 0.085990 -0.750143 2.419947
H 2.625405 0.290546 -0.744139
H 0.356045 1.453574 -1.815376
H 0.774305 -1.463213 -1.191972
H -0.577750 0.272105 -2.490516
H 1.691108 1.113744 0.420813
H -1.669564 -0.261773 2.127415