15
H6 C4 N4 O1
N -0.960819 -0.914132 0.494130
C 0.832585 0.676014 -0.840773
C -0.255356 0.999269 0.250745
N -1.410137 0.320568 0.084628
N -0.420111 -1.491222 -0.507166
C 0.667246 -0.815252 -1.054685
O 0.601827 1.362450 -1.954400
C -0.578399 0.039358 1.345655
N -0.410237 0.184315 2.693850
H 1.318139 -1.242661 -1.716504
H 1.769012 0.841796 -0.192915
H -1.048340 -0.492178 3.197001
H 1.333114 1.215595 -2.493315
H -0.476188 -2.544789 -0.662045
H -0.384468 2.074260 0.432066