18
H10 C7 O1
C -2.127113 0.019015 -1.260098
C 1.587029 -0.247900 2.090335
C 0.045057 -0.860570 0.078433
C 1.112275 0.071548 0.611200
C -0.707100 -0.375644 -1.209138
C -0.289585 0.554721 0.520496
C 0.225218 0.855898 -1.245717
O -2.854943 -0.206812 -2.193781
H -0.455991 -1.183105 -2.091312
H 2.618621 -0.579254 2.083228
H 0.022083 -1.803499 0.466790
H -0.244056 1.745791 -1.427383
H 1.847845 0.583053 0.185096
H 1.517070 0.637939 2.730307
H 0.919189 0.849516 -2.005997
H -2.505023 0.502174 -0.339803
H 1.129186 -1.046712 2.683535
H -0.950929 0.682101 1.393147