22
H13 C7 N1 O1
C -0.282781 -0.883249 2.505726
C 0.570398 -0.117736 1.680202
C -0.003052 -1.583631 -0.887081
C -0.654441 -0.238750 -0.585231
N -1.062717 -1.423460 3.234620
O 1.396071 -1.575190 -0.713540
C -0.951717 0.427077 -1.812992
C 0.825194 1.734264 0.120948
C -0.089864 0.646397 0.540300
H 0.355623 2.523388 -0.417481
H 0.979190 0.634587 2.449259
H 1.479603 -0.642680 1.363064
H -1.590688 -0.046942 -2.529398
H -1.533087 1.410340 -1.721558
H -1.662089 -0.647790 -0.207009
H -0.972652 1.240069 1.016116
H 1.542503 1.369827 -0.561721
H 1.394169 2.211314 0.989484
H -0.099817 0.763711 -2.415571
H -0.273983 -1.849694 -1.880430
H 1.622216 -0.896769 -0.717068
H -0.397214 -2.416740 -0.200692