22
H14 C8
C -0.385384 2.883025 -0.919978
C -1.455649 -1.150620 1.937833
C 0.614938 -0.509477 -0.516747
C -0.672875 0.299089 0.029100
C -0.776208 0.163246 1.564548
C -0.487411 1.698919 -0.416953
C 0.403524 -0.812213 -2.008657
C 1.929617 0.199995 -0.358152
H 0.748739 -1.427848 0.081278
H 1.193000 -1.479500 -2.333954
H -2.412462 -1.315334 1.487362
H -1.516518 -0.076717 -0.472572
H -1.403270 0.980754 1.974906
H -0.747909 -2.053847 1.589555
H 2.151561 0.496728 0.710845
H 1.977224 1.155462 -0.965179
H 0.183373 0.291728 2.072664
H -0.480764 -1.528991 -2.037036
H -0.345924 3.879116 -1.190093
H -1.526091 -1.258090 3.037673
H 2.775599 -0.422460 -0.684126
H 0.232866 -0.012964 -2.582261