19
H11 C7 N1
C -2.160874 -0.082796 -0.334296
C 2.405360 0.427052 0.868177
C 0.206214 -0.437954 -0.737974
C -1.149273 -0.729601 -1.385266
C -1.035253 0.446414 0.634097
C 0.115085 -0.577519 0.826187
C 0.178962 0.976790 -0.069187
N 0.977662 0.530825 1.032224
H 2.907295 1.364324 0.917241
H 2.692617 -0.032695 -0.076345
H -1.249660 -0.226100 -2.365908
H 2.836413 -0.257814 1.665441
H 1.069014 -0.822956 -1.218187
H -1.285889 -1.814296 -1.523449
H 0.046307 -1.480105 1.445785
H -2.775524 -0.862213 0.132475
H -2.737117 0.679245 -0.737609
H -1.331717 0.978863 1.541732
H 0.290365 1.920538 -0.615152