16
H7 C6 N3
C 0.788150 0.571133 0.544444
N -1.601008 1.037643 0.028787
C -1.767930 3.311422 1.016129
N 1.114794 -2.764266 -0.886330
C 0.844785 -1.496881 -0.389614
C -1.664322 2.271553 0.507716
C 1.579720 -0.616811 0.271836
C -0.421103 0.315262 -0.025456
N -0.408261 -0.947999 -0.517801
H 1.018040 1.484334 1.033050
H 1.807706 -3.231541 -0.311269
H -2.392965 0.638659 -0.485843
H 2.650802 -0.720111 0.595025
H -1.139729 -1.435523 -0.968581
H 1.472011 -2.742540 -1.860921
H -1.880711 4.325653 1.448798