15
H6 C4 N4 O1
C -0.730323 -0.393172 0.636725
C -0.750024 -0.153331 -0.895196
C 1.494699 0.103576 1.321709
O 2.223322 -0.427092 2.185997
N 0.224639 -0.146365 1.441690
N -1.936856 -0.876845 1.064216
C 0.347060 0.722756 -1.428994
N 2.120054 0.844012 0.382360
N 1.448730 1.123956 -0.786926
H -1.661412 0.306884 -1.253658
H 1.994232 1.710919 -1.299745
H -2.000132 -1.115061 2.039689
H 0.235705 1.043105 -2.455792
H -0.651178 -1.149837 -1.420882
H -2.358497 -1.593513 0.468830