13
H6 C5 N2
C 0.749116 -0.160908 1.642132
C 1.259630 0.100778 -0.741158
N -0.661033 -0.192676 1.754445
C -0.064909 0.131052 -1.301727
C -1.239891 -0.001638 -0.655663
C -1.523939 -0.113602 0.802603
N 1.602114 -0.031615 0.723404
H -2.215490 0.019233 -1.190401
H -2.563573 -0.107457 1.096391
H -0.130356 0.227008 -2.347787
H 1.750280 1.030784 -1.086626
H 1.843986 -0.624981 -1.298186
H 1.194053 -0.275973 2.602557