17
H8 C5 N4
N 1.040646 -0.234715 1.544189
C -1.066508 0.664018 -1.186848
C -0.637504 1.920256 0.869893
N -0.454230 0.765258 -0.027581
C 0.000862 -1.458882 -1.549467
N -0.926992 -0.438310 -1.934259
C 0.506214 -1.341157 -0.372347
C 0.437189 -0.296644 0.446426
N 1.874160 -1.314793 1.707689
H -1.405905 -0.563157 -2.785914
H -1.685596 1.474428 -1.485893
H 0.073576 -2.360343 -2.181029
H -0.885850 1.575911 1.836307
H -1.372414 2.605297 0.458752
H 0.320937 2.460637 0.937236
H 2.342993 -1.307874 2.568893
H 1.838444 -2.149960 1.153970