18
H9 C6 N1 O2
O 0.703146 -1.935474 0.009857
C -0.330680 1.057347 1.401914
C 0.709205 -1.248408 -1.159289
C -0.870021 1.467604 0.034452
C -0.243258 -1.534658 1.045151
N 1.691195 -1.523263 -1.975915
C -0.000052 1.013314 -1.147848
O -0.262820 -0.347574 -1.423562
C -0.063364 -0.249095 1.819244
H -1.252278 -1.449182 0.568774
H -0.124392 1.844481 2.079113
H 1.067743 1.178351 -0.927538
H -1.825105 1.125437 -0.091219
H -0.221428 -2.360207 1.748587
H 1.780158 -0.817648 -2.709561
H 0.417790 -0.408280 2.729693
H -0.963725 2.603526 0.023197
H -0.212117 1.583744 -2.025039