15
H6 C8 O1
C 0.669634 -0.204953 0.988430
C -0.120211 2.107641 0.830739
C -0.251711 3.192389 1.336260
O -1.249324 -1.775989 -0.768039
C 0.156378 -1.871056 -0.687946
C -0.015973 0.849797 0.266900
C -0.469741 0.545152 -0.977036
C -0.438317 -0.808754 -1.454359
C 0.686522 -1.470290 0.649967
H -0.314869 4.119816 1.768480
H -0.530567 -0.995043 -2.553093
H 0.543837 -2.819368 -1.073225
H 1.348707 -2.157290 1.189715
H -1.051694 1.240883 -1.505524
H 1.037322 0.047083 1.988744