17
H8 C7 O2
O 1.192055 1.421123 1.534799
C -0.556005 -1.405398 0.286825
C 1.331731 0.525224 0.438319
C 1.385091 1.359320 -0.884606
C -0.746070 2.842132 -1.187101
C 0.205899 2.247734 -1.080132
C 0.344528 -0.448352 0.397556
C -1.559541 -2.422696 0.294637
O -1.091006 -3.753895 0.478979
H 1.483760 0.670549 -1.751454
H 2.325168 0.062363 0.576571
H -1.616847 3.467969 -1.324526
H 2.270557 2.014639 -0.875120
H -2.023810 -2.449268 -0.730548
H -2.412846 -2.136092 0.941939
H -0.782268 -3.713438 1.340182
H 0.249597 1.718098 1.543672