20
H11 C7 N1 O1
C -0.674197 0.948944 -0.399506
C -1.357934 1.650645 0.836191
C -0.506565 -0.477731 1.576409
C 1.614085 -0.242495 0.236373
C 0.085451 -0.127401 0.234319
O -0.368162 -1.412512 2.324151
C 0.804192 -1.283602 -0.512024
C 0.811644 -1.210002 -2.050559
N -1.387338 0.572922 1.872043
H 0.704277 -2.225019 -0.071152
H -1.780187 0.717057 2.765311
H -0.782054 2.534161 1.161517
H -0.075981 1.697328 -1.009895
H 2.090000 -0.586138 1.180650
H -2.417067 2.045992 0.583736
H 2.170367 0.523491 -0.345134
H -0.063540 -1.686423 -2.454015
H 1.695898 -1.781683 -2.409646
H 0.868981 -0.203153 -2.454483
H -1.431872 0.545579 -1.064303