17
H10 C6 O1
C 0.350244 0.057281 0.310647
C 0.743524 1.152828 1.266363
C -1.597237 -0.263458 -1.508454
C -1.170966 0.134745 -0.115814
C 1.378980 -0.361621 -0.749695
C -0.648547 -0.960785 0.808235
O -1.793651 -1.430945 -1.845990
H -1.697334 1.002352 0.248832
H 1.150422 2.058784 0.709786
H 1.003427 -1.077067 -1.371328
H -1.718835 0.550055 -2.221291
H 1.617683 0.869667 1.827189
H -0.573514 -1.978819 0.385437
H -0.975705 -0.906853 1.860163
H 2.236932 -0.782778 -0.201731
H -0.013165 1.435605 1.903229
H 1.707753 0.501017 -1.305565