21
H12 C8 O1
C 0.731211 0.648220 0.319465
C -0.216286 0.034062 -0.652681
O -1.080256 0.663971 -1.493462
C 0.752361 -0.648715 1.048777
C -1.650586 -0.157701 -2.467098
C 1.329081 -0.005626 -0.910701
C 0.361939 0.305405 2.317843
C 0.477581 1.587389 1.458340
C -0.425117 -1.197041 0.237182
H -2.287928 0.444449 -3.105607
H 1.306147 2.243401 1.670302
H -0.584848 0.077095 2.758896
H 1.158111 0.331527 3.084685
H -0.465379 2.211698 1.429936
H -1.309887 -1.139793 0.806824
H -2.254369 -0.906167 -1.958276
H -0.365854 -2.131017 -0.314169
H 1.551439 -0.977063 -1.341677
H -0.812942 -0.719886 -3.100995
H 1.720362 -1.272159 1.262603
H 2.065248 0.607935 -1.050217