21
H12 C8 O1
C -1.202420 0.822644 1.500019
C 0.546906 0.976108 -0.396490
C 1.241262 -1.753000 0.416777
C 0.219931 -0.601489 -0.015919
C -0.334352 1.773401 -1.263972
C -1.163805 -0.928825 0.235666
C 0.202114 0.664055 1.017369
C 0.896590 -1.594155 -1.072770
O -2.015337 0.047580 0.593372
H 0.022762 1.587595 -2.344218
H -1.452454 1.525893 -1.192409
H 1.682314 -1.156994 -1.711939
H 0.904648 -2.657189 0.841590
H 1.050636 0.773084 1.782138
H -0.211733 2.797931 -1.095510
H 0.308838 -2.331106 -1.525840
H -1.612549 -1.898404 0.075333
H -1.548016 1.853049 1.397363
H 1.604740 1.039897 -0.535294
H -1.272140 0.513379 2.562499
H 2.132082 -1.453453 0.732249