18
H9 C7 N1 O1
O 1.030760 2.451688 -1.037824
C -0.017679 -1.612425 -0.760560
N 0.445979 -0.299803 -1.106064
C 0.408441 0.452603 0.169402
C -0.858298 0.208481 -0.594918
C -1.615811 -0.787042 0.224122
C 0.517173 -0.494392 1.257205
C -0.311372 -1.579307 0.665832
C 1.197269 1.808065 0.177713
H 2.259697 1.572346 0.381254
H 1.038328 -0.389243 2.228456
H -1.319242 1.020295 -1.249558
H 0.873603 2.441856 0.953312
H -0.498499 -2.525413 1.257429
H 1.221120 1.836194 -1.834022
H -2.371203 -1.383922 -0.361819
H 0.148085 -2.402108 -1.450469
H -2.148342 -0.317883 1.080527