18
H10 C6 O2
O -0.269478 1.449015 -0.946597
C -1.389875 2.154635 -0.894104
C -0.107116 0.325202 -0.073155
O -1.648566 2.917310 -1.785253
C -0.576364 -0.959630 -0.779157
C -0.414869 0.526009 1.400066
C 0.827356 -0.604860 -0.585944
C 1.718720 -1.574293 0.278446
H -2.030680 2.024905 -0.098675
H 2.574244 -0.990804 0.705594
H 1.364295 -0.266893 -1.435991
H -0.197042 -0.323483 1.965031
H 2.057159 -2.405515 -0.337283
H -1.394214 0.927574 1.611415
H -1.009528 -1.744943 -0.149078
H -1.030046 -0.862427 -1.723188
H 0.356205 1.331114 1.731644
H 1.169796 -1.922882 1.116272