16
H7 C5 N1 O3
N 0.237690 1.081343 -1.050686
C 1.583580 -0.292068 1.612024
O 0.907996 -1.235404 0.973234
C 1.020125 -0.259457 -0.436381
O -2.740164 0.309175 -0.497730
C 1.697602 0.671356 0.481398
C -1.613712 -0.290712 0.104082
O 2.098107 -0.379436 2.700207
C -0.406053 -0.212702 -0.796703
H -1.777884 -1.398862 0.367664
H 1.636205 -0.701173 -1.225337
H 2.329855 1.488969 0.369502
H -1.368235 0.206427 1.012613
H -2.898885 0.022323 -1.365995
H -0.640006 -0.780970 -1.743926
H -0.066216 1.771193 -0.503978