17
H8 C7 O2
O -0.582364 -1.144866 2.097852
C -0.461997 0.111390 0.066674
C 0.904667 0.140041 -0.652430
C -0.482366 1.498631 0.735789
C -1.306952 -3.364162 -0.345190
C -0.694570 -1.101462 0.862210
C -1.043192 -2.319676 0.261822
C 1.368924 1.582466 -0.641256
O 0.228162 2.373169 -0.204593
H 1.678400 1.981327 -1.572883
H -1.488697 -4.267856 -0.883003
H 0.832806 -0.235247 -1.682704
H -1.445274 1.975628 0.927785
H 1.610570 -0.550478 -0.111957
H -0.003079 1.412944 1.738478
H 2.152305 1.800552 0.124122
H -1.267371 0.107599 -0.720709