18
H9 C7 N1 O1
C -0.409502 -0.135891 0.142627
C 0.287408 0.948124 -0.792178
O 1.339815 1.535486 -2.814651
C 0.943312 -0.208510 1.685392
C 0.722126 -1.179873 0.542361
C 0.952372 0.694298 -2.029000
C -1.782171 -0.701466 -0.143826
C 0.086341 0.913636 1.259988
N 0.857503 1.603796 0.235957
H -2.489765 0.188375 -0.236461
H 0.900597 -0.407772 -2.356117
H 1.558599 -1.386447 -0.141303
H -1.835058 -1.310126 -0.981972
H 1.350303 -0.440977 2.693480
H -2.111665 -1.287443 0.754134
H -0.233548 1.900073 -0.786036
H -0.457005 1.398908 1.999992
H 0.320330 -2.124178 0.967621