19
H10 C8 O1
C 0.830585 -0.928709 -0.453787
C 0.634378 1.672361 -0.293972
C -0.870488 -2.376484 0.737718
C 1.269464 0.435932 -0.935502
C 0.170196 1.237468 -1.686898
O 1.457175 -1.915458 -0.784959
C -0.794377 0.048027 1.097491
C -0.281107 1.527206 0.876115
C -0.277399 -1.040231 0.476863
H -0.766524 0.812631 -1.754512
H 0.561966 1.817794 -2.550601
H 2.255049 0.481881 -1.322838
H 0.275555 1.814840 1.808887
H -0.158296 -3.056932 1.202224
H 1.331482 2.517859 -0.219513
H -1.583035 -0.014141 1.794232
H -1.177353 2.150793 0.831878
H -1.741474 -2.366223 1.389082
H -1.135822 -2.818624 -0.211922