18
H9 C7 N1 O1
C 0.517953 0.157834 -1.809685
C 0.756545 0.013488 -0.313723
C -1.227861 -1.029448 1.824968
C 0.492652 -0.683480 0.799443
C -0.686902 0.585170 -0.224946
O -0.246641 -0.034198 1.935845
C 0.417257 1.458362 -1.012015
C -0.829194 -1.092677 0.364019
N 1.613234 1.271953 -0.012664
H -2.210707 -0.674364 2.092550
H 2.416206 1.345026 -0.606249
H -0.335122 -0.066587 -2.420269
H -1.248751 -1.735572 -0.306181
H -1.076757 -1.917146 2.444701
H 1.341172 -1.243533 1.240206
H 1.429414 0.093885 -2.549313
H 0.367551 2.479674 -1.504755
H -1.490024 1.071618 0.058043