15
H7 C5 N1 O2
C 0.571259 0.381225 -0.025823
C -0.633860 -0.234571 -0.660656
C -0.564554 -1.464148 0.138534
C -0.272449 -0.196623 0.984919
O 1.932073 0.072743 -0.203863
C 0.243837 1.825010 0.403306
O -0.781489 1.311536 1.210050
N 0.051411 -1.388869 -1.203511
H 1.944278 -0.499377 -0.931447
H -0.989683 -2.425833 0.442288
H -0.125950 2.536278 -0.374989
H -1.550269 0.126307 -1.025138
H -0.119821 -0.419317 1.989871
H -0.721960 -1.936991 -1.682297
H 1.017181 2.312642 0.938728