22
H13 C7 N1 O1
C -1.545285 1.030060 0.808545
O 0.290766 0.063861 -3.166933
C 1.059348 -1.163418 0.038672
C -0.945630 -1.018578 2.013317
C 0.494558 0.665528 -0.847010
C -0.554018 -0.026854 0.824071
C 1.256983 0.582162 -2.178566
C 0.986431 0.317498 0.582730
N -0.252280 -0.635115 -0.500940
H -1.553889 1.615982 1.764645
H -2.549857 0.656398 0.641415
H 1.725012 0.809161 1.162848
H -0.213602 -1.790409 2.228695
H 0.924858 -1.973279 0.755658
H -0.076709 1.535582 -0.873007
H -0.240187 -0.678588 -2.688594
H -0.968901 -0.426846 2.938854
H 1.545160 1.527593 -2.527793
H -1.883642 -1.409208 1.776437
H -1.417852 1.760876 0.027905
H 2.163356 -0.039629 -2.018298
H 1.755365 -1.402779 -0.762667