17
H8 C8 O1
O 0.728731 1.520468 -0.779951
C -0.483379 -0.732094 -0.220754
C 0.530717 0.427435 0.174206
C 2.832310 -0.635327 0.867165
C -0.428955 0.990537 1.259989
C -1.398056 -0.141823 0.947749
C -0.967516 -0.652974 -1.591344
C -1.351677 -0.667194 -2.780618
C 1.806478 -0.144154 0.524611
H -0.110532 -1.700025 0.052594
H -0.808707 1.971749 0.981286
H -2.362752 0.132267 0.580245
H 0.049008 0.986039 2.245562
H -1.643237 -0.728779 -3.762061
H 1.379007 1.268035 -1.415709
H -1.525372 -0.856540 1.776105
H 3.753907 -1.037606 1.140924