18
H9 C6 N1 O2
C -1.217695 -1.063204 1.050331
N 0.057523 0.498466 -0.361862
C 1.473644 0.445959 -1.082624
O 1.853693 1.527480 1.081390
C 1.288514 0.851806 0.223108
C -0.551396 -0.795018 -0.229874
C -0.852094 1.663172 -0.502616
C 0.131983 -1.813023 0.778291
O -0.420217 -0.651774 1.980665
H -1.056151 -1.223596 -1.175290
H -1.432621 1.554234 -1.412849
H 1.958440 -0.583322 -1.149038
H 1.620691 1.112604 -1.860667
H -2.202065 -1.454170 1.264276
H -0.091313 -2.885328 0.618341
H -0.250759 2.626786 -0.511136
H 1.244996 -1.589330 0.960716
H -1.555173 1.778298 0.328839