20
H11 C7 N1 O1
C -1.499506 -0.731243 1.385794
C -2.061174 0.321666 0.426915
C 2.401799 0.364832 -0.130425
O -0.640556 -1.697950 -0.759766
C -0.784894 0.711007 -0.369125
C -0.395568 -1.394440 0.618089
N 1.459913 -0.560864 -0.832836
C 0.022230 -0.467469 -0.433948
C 1.967405 0.714126 -1.445249
H -2.804983 -0.113127 -0.221632
H 1.380609 1.627131 -1.523958
H -2.548103 1.141052 0.955390
H 3.381125 -0.122947 0.085834
H -1.105737 -0.328785 2.343649
H -2.271480 -1.453567 1.662073
H -0.258632 1.558434 0.132898
H 1.971611 0.967620 0.709784
H -1.063335 1.101533 -1.413648
H 2.595913 0.521930 -2.322274
H 0.253334 -2.158921 1.132444