15
H6 C5 N2 O2
N 1.836747 0.354303 -0.463685
C -1.656925 -0.258204 0.443252
O -1.289471 -0.960509 -0.716551
C -0.452189 0.853622 0.755114
C 1.075820 -1.169699 -1.716358
C 0.588838 0.163874 -0.107687
O -0.192910 0.846605 2.127036
C 0.041021 -0.760503 -0.962003
N 2.170017 -0.543150 -1.417024
H 1.068265 -1.962485 -2.554284
H -2.644747 0.159128 0.380961
H -1.589855 -0.961872 1.340622
H -0.646312 1.512742 2.589873
H -0.838554 1.823733 0.335950
H 2.530266 0.902404 -0.035187