21
H12 C8 O1
O 1.044967 3.048578 -1.238459
C 0.148923 -1.124573 0.217886
C -0.474099 1.326197 1.081764
C -0.012728 -1.943688 -1.057190
C -0.522136 1.443830 -0.412613
C 0.806872 1.623274 -1.197017
C -0.125801 -1.994667 1.382599
C -0.310718 -2.721888 2.412764
C -0.794051 0.098818 0.272898
H -1.212282 1.800566 1.657695
H -1.805662 -0.204840 0.290929
H -0.450981 -3.360133 3.160613
H -1.011946 -2.263623 -1.152665
H 1.609913 1.116826 -0.772355
H 1.176812 3.318686 -0.297243
H -1.320118 1.877969 -0.924376
H 1.165041 -0.765393 0.316476
H 0.649543 1.357095 -2.246910
H 0.537243 1.373349 1.542343
H 0.656414 -2.755619 -1.101487
H 0.244783 -1.250741 -1.935653