16
H7 C6 N2 F1
C 0.674042 1.848142 0.480751
C -0.137492 -0.318648 0.279096
C -1.091310 -0.666199 1.153517
C -1.908494 -1.605931 0.537493
N 0.993730 0.566638 0.410966
C -1.453663 -1.721620 -0.775239
C 1.814988 0.724855 -0.816784
F -1.213541 -0.354276 2.395524
N -0.295410 -0.968722 -0.901429
H 1.265786 1.068391 -1.656571
H -0.115759 2.267472 -0.117039
H -2.766897 -2.056631 0.951944
H 1.034157 2.410163 1.301888
H 2.742320 1.313154 -0.605532
H -1.805650 -2.246255 -1.592280
H 2.263186 -0.260516 -1.046288