17
H8 C4 N4 O1
C 2.734924 1.484221 1.450794
N -0.735632 0.213628 1.146059
C -1.776175 -1.805338 -1.540797
C -0.652744 0.078878 -0.148425
N -1.949417 -0.559617 -0.725810
N 0.392668 0.595778 1.713093
C 1.437469 1.005049 1.014746
O 1.313274 0.924619 -0.393122
N 0.272370 0.262777 -1.003882
H -2.474623 -0.808682 0.168169
H 2.570378 2.027742 2.398197
H -2.523669 0.152989 -1.122417
H 3.165108 2.115710 0.724323
H -2.798142 -2.247180 -1.760856
H -1.086754 -2.542725 -1.121925
H -1.303946 -1.536915 -2.473785
H 3.414932 0.639069 1.675606