21
H12 C6 O3
C -0.829239 0.238064 0.400082
C -0.586745 -2.296819 0.296817
O 1.099270 -0.319219 -1.207417
C 0.251361 0.741203 -0.562794
O 2.199164 2.180659 -0.771050
C 0.221512 0.522221 -2.051966
C 1.121586 1.882988 0.003794
C -0.480175 -1.011215 1.169295
O -1.303221 -1.179500 2.334139
H 0.584870 -0.920799 1.493181
H -1.719006 0.114559 -0.207407
H -1.580438 -2.374905 -0.183823
H -2.131716 -1.461976 1.983940
H 0.362528 2.707861 0.094764
H 1.388116 1.621101 1.081610
H -0.639546 -0.003838 -2.425137
H 2.671313 2.877932 -0.371076
H -1.058392 1.014252 1.104053
H 0.733462 1.157767 -2.680528
H 0.108592 -2.259611 -0.449320
H -0.413269 -3.230716 0.948830