16
H9 C4 N1 O2
C 0.617966 1.420966 0.433899
N 0.323863 2.351776 1.369492
C -0.791047 -2.012449 -0.824226
C 0.217268 -0.936977 -0.335436
O 1.615982 1.451428 -0.135085
C -0.485927 0.304175 0.295530
O 0.890000 -0.571323 -1.492443
H -0.260929 -2.850424 -1.247681
H -0.500407 2.294234 1.935469
H -1.229095 0.722146 -0.408298
H -1.438102 -1.604900 -1.550066
H 0.832435 -1.410025 0.411260
H 0.966204 3.117356 1.564580
H -1.402992 -2.350672 0.035958
H 1.605788 -0.026392 -1.265431
H -0.961002 0.101086 1.212481