20
H11 C6 N1 O2
C -0.157633 0.417211 0.404465
C -0.502387 -0.388081 -0.933727
C -1.202335 0.003145 2.444052
O 1.682737 -0.883667 -2.063902
C -0.865284 0.426503 -2.045059
N -1.184141 1.203524 -2.927354
C 1.215553 1.013996 0.399819
C 0.615494 -1.379635 -1.323558
O -0.399846 -0.506330 1.465811
H -1.410890 -0.932521 -0.716253
H 1.003813 -1.829762 -0.402602
H 1.291837 1.629083 1.338213
H 0.162988 -2.170727 -1.921021
H 1.985308 0.249062 0.560564
H 1.453265 1.635867 -0.451174
H -1.126696 -0.730802 3.313278
H -2.284657 0.012004 2.119962
H 1.642063 -0.020076 -2.450055
H -0.975657 1.023252 2.829324
H -0.943543 1.227947 0.359221