17
H9 C5 N3
N 1.318907 -1.760187 0.160355
C 0.449892 1.519752 1.167979
C -0.861895 -0.309291 -0.054147
N 0.164441 -0.951376 -1.667111
C -0.707785 0.610611 1.115533
C -0.771702 0.135334 -1.558923
C 0.416375 -1.124908 -0.322325
N 0.332661 0.373969 2.116266
H 1.231255 1.533404 0.466745
H 0.225719 2.581659 1.681497
H -1.714702 0.918312 1.642571
H -1.660504 0.056282 -2.155659
H 2.047772 -2.131873 -0.358278
H 0.954237 -0.370596 1.816917
H 0.649850 -1.206552 -2.504977
H -0.351232 1.109364 -1.669900
H -1.723266 -0.983896 0.123481