17
H8 C7 N2
C -0.589329 2.022974 1.312468
C -1.420718 -0.975123 -0.945932
C 0.672102 0.608850 -0.403632
C 0.020963 -0.777749 -0.607593
N 1.099767 -1.597781 -0.200781
C -0.724100 1.171548 0.191980
C 1.743169 -0.258439 0.364152
N -0.566965 2.761162 2.225882
C -0.940921 -0.371445 0.492415
H 2.718521 -0.113704 -0.093137
H -1.937430 -0.400310 -1.576509
H -1.825351 -1.954268 -0.793562
H -1.464829 1.614558 -0.557516
H 1.627992 -1.923979 -0.961993
H -1.182912 -0.786559 1.476700
H 0.974104 1.165837 -1.268808
H 1.795933 -0.185599 1.345871