16
H7 C6 N1 O2
O -2.535767 0.173005 -0.544035
N 0.188136 -0.767362 -1.932100
C -0.334475 0.647282 0.248822
C 1.989277 0.201358 -0.666961
C -2.167885 -1.181144 0.030020
C -1.559948 -0.038814 0.177760
C 0.805573 0.667552 1.235192
O 1.942644 1.076945 0.454693
C 0.483200 -0.063978 -1.052544
H -0.525933 1.764615 -0.024455
H 2.589933 0.636369 -1.430250
H -1.847257 -2.063770 -0.630966
H 0.628256 1.397328 2.070004
H -3.082776 -1.443400 0.728618
H 0.983677 -0.274177 1.683828
H 2.443353 -0.731793 -0.347631