17
H8 C8 O1
C 1.342453 -0.918635 0.878908
C -1.250491 1.025157 0.449832
C -0.031618 -1.536942 1.280719
C -0.598757 -1.698791 -0.100156
C -0.491835 1.786869 -0.636027
C 0.434748 -0.385311 -0.284181
O -1.190077 -2.507337 -0.715132
C 0.463427 0.685918 -1.315889
C -0.615389 -0.222911 0.645768
H -1.188585 2.221953 -1.377609
H 0.101744 2.656932 -0.330059
H 1.508601 1.086790 -1.481071
H 1.726971 -0.204324 1.625854
H -2.142431 1.386851 0.835451
H -0.336598 -2.047996 2.157713
H 0.197523 0.310477 -2.270446
H 2.070310 -1.638716 0.636356