17
H9 C6 N1 O1
C -1.186219 -1.505024 -0.735496
C 0.488203 0.347522 0.201666
C 1.568537 0.102823 -0.754317
C -0.290234 -0.939770 0.371181
C 1.135460 0.785723 1.480641
O 0.780950 0.454849 2.565028
N 2.417310 -0.103884 -1.491328
C -0.399446 1.467934 -0.345525
H 1.943530 1.623931 1.250426
H -1.643255 -2.487687 -0.495524
H -0.574403 -1.674563 -1.631304
H -1.415267 1.339443 -0.014364
H -0.058927 2.436200 0.045165
H -1.926661 -0.758199 -1.004522
H -0.337267 1.573354 -1.379947
H 0.417039 -1.812744 0.644891
H -0.919365 -0.849896 1.293340