18
H9 C6 N1 O2
O 0.299376 -0.510476 -1.210891
C 1.462273 -0.029580 -1.852212
N 1.421741 0.032269 -3.144898
C 0.334339 0.719036 0.999026
C -0.805639 -1.165100 0.861764
O 0.192855 1.876458 0.311272
C -1.966066 -0.212411 0.552925
C -0.925878 0.159645 1.625940
C 0.452208 -0.694116 0.179946
H 1.349182 -1.229916 0.457450
H 2.286966 0.434389 -3.452699
H -0.949254 -2.209301 1.189215
H -0.374491 1.777666 -0.291558
H -1.308238 0.253052 2.674499
H 2.286943 0.220203 -1.190169
H 1.174428 0.844157 1.661302
H -2.018047 0.292812 -0.318246
H -2.912683 -0.558791 0.947313