16
H7 C5 N3 O1
C -0.442445 1.467288 -1.009364
C 0.684833 0.990467 -0.251979
O 2.165870 0.932208 0.034447
C -1.516201 0.511144 -0.492703
C -0.732572 -0.628306 0.131330
N 2.510588 -0.881332 1.558671
N -1.047906 -1.906666 0.249892
C 1.894876 -0.087954 0.827827
N 0.510424 -0.009791 0.520628
H -2.220674 0.151347 -1.311054
H -0.599084 2.522321 -0.951078
H -1.958443 -2.233492 0.104144
H -0.123609 1.228189 -2.144204
H -2.156296 0.966284 0.342960
H 3.467046 -0.567468 1.489887
H -0.436403 -2.454202 0.900566