17
H8 C7 N2
N -0.874212 0.915786 0.226849
C -1.251068 -0.505452 -0.266499
C 0.856423 -0.228770 0.937577
C 0.034619 1.021294 -0.940080
C -0.147990 0.743745 1.484435
C -0.578031 -0.241301 -1.586285
N 0.641773 -1.096523 -1.121146
C -0.095417 -1.238640 0.217016
C 1.245403 0.201143 -0.486216
H -2.312452 -0.774363 -0.071750
H -0.908031 -0.386580 -2.476400
H 0.137794 1.993524 -1.347585
H -0.206095 -2.318913 0.484150
H 1.660592 -0.652605 1.594829
H -0.787262 0.400538 2.269195
H 0.285454 1.650178 1.805808
H 2.298481 0.516937 -0.723920