12
H4 C4 N2 O2
O 0.108409 0.461765 0.626662
C 0.282258 -0.408090 -0.385178
C -1.569669 0.630848 -1.549978
N 1.256979 -1.300388 -0.046369
C 0.944504 0.123226 1.747472
O 0.940122 0.685935 2.734301
C 1.682032 -0.956612 1.192726
N -0.420301 -0.297224 -1.463558
H -1.267172 1.687067 -1.457072
H -2.122355 0.431288 -2.461586
H -2.238265 0.435993 -0.613436
H 2.403467 -1.493811 1.676031