20
H11 C7 N1 O1
C -1.769658 -0.562585 0.993899
C -1.015839 1.547124 -0.229081
C 1.081767 -0.419073 -1.602721
O 2.141994 -1.402324 -1.831538
C 1.168937 -0.128661 2.199078
C 0.381828 -0.688743 -0.290946
C -0.700752 0.229737 0.277960
C 0.768869 0.191464 0.880332
N 1.432586 -0.382550 3.278371
H -2.150195 -0.011287 1.858860
H -2.586147 -0.796993 0.351707
H 1.517798 0.578136 -1.629769
H 0.399891 -0.466487 -2.458443
H 1.477049 1.086320 0.531036
H 0.193370 -1.730222 -0.221021
H -1.430847 -1.401075 1.407770
H -0.178415 2.140778 -0.566101
H -1.814043 1.413837 -0.960548
H -1.476949 2.115027 0.607584
H 2.558786 -1.312457 -2.596407