11
H5 C4 N1 O1
C -0.342290 -0.650767 -0.587723
C 0.892167 0.090129 -0.466324
C -0.650225 0.526448 1.287135
C 0.620335 0.918988 0.817340
N -1.257545 -0.330522 0.318085
O -0.617807 -1.442536 -1.597387
H 1.227544 1.595775 1.224864
H 1.685970 -0.606804 -0.367924
H -1.510784 -1.807228 -1.429942
H 1.133120 0.764283 -1.305674
H -1.180476 0.942224 2.107554