17
H8 C6 O3
O 1.317839 -1.128973 -2.833651
C -0.908493 0.221077 1.025098
C 1.396877 0.729374 0.855294
C 0.388287 -0.541447 -2.442966
C -0.890357 0.426254 -0.459899
O 1.412153 -0.041164 -0.318154
C 0.279063 -0.043176 -1.081680
C -0.566430 -1.127865 1.433009
O 0.222887 0.602706 1.777593
H -1.055555 -1.550059 2.353217
H -1.797078 0.025620 -1.010684
H 2.240610 0.437191 1.431606
H 1.371826 1.828981 0.611343
H -1.881258 0.584111 1.503781
H -0.566871 -0.204099 -3.001971
H -0.909427 1.491853 -0.693918
H -0.054089 -1.710361 0.851973