14
H6 C3 N4 O1
C -0.899203 -1.003814 -2.441006
C 0.215888 0.124928 0.739191
N -0.637641 -0.278759 -0.231012
N -0.273645 -1.164407 -3.520497
N -0.261258 0.417568 1.961550
C 0.516165 1.181204 2.910055
O 1.489219 0.300209 0.377545
N -0.089684 -0.569988 -1.339445
H 0.223764 0.784285 3.865303
H -1.904769 -1.203806 -2.155194
H 1.544101 1.111739 2.728898
H 0.183376 2.235913 2.817978
H 0.895710 -0.465032 -1.523145
H -1.002036 -1.470038 -4.190224