12
H5 C4 N1 O2
O 1.125861 -0.751868 0.690066
C -0.066310 0.344187 -0.860230
C -0.799258 0.390860 0.524866
O 0.897743 1.291577 -0.285088
C 0.623341 0.537194 0.941342
C 0.648891 -1.002966 -0.742058
N -1.938737 0.423629 1.084422
H -2.668834 0.024485 0.559054
H 0.080807 -1.830428 -0.751747
H 1.584824 -1.063533 -1.364184
H 1.019027 1.015773 1.937102
H -0.507360 0.621083 -1.733544