16
H7 C6 N3
C 0.607336 -1.455977 0.071112
C 0.575941 0.090239 -0.606960
N -0.918990 -0.190200 1.256468
N 0.757356 1.005715 -1.705321
C -0.617777 0.494744 0.119610
N 1.754941 -0.564188 -0.095959
C -0.363767 1.786996 -1.681301
C 0.054017 -1.227506 1.443943
C -1.215054 1.494449 -0.635920
H -1.150693 0.316609 2.114337
H -2.159928 1.997801 -0.448044
H -0.353452 -2.182403 1.965988
H 0.391961 -2.349711 -0.469277
H 0.910891 -0.887981 2.131660
H 2.205825 -0.816673 -0.989578
H -0.478596 2.488078 -2.470751