19
H10 C8 O1
C 0.051486 1.036092 -1.348774
C 1.283563 -1.526784 0.940728
O 2.480879 -0.758861 0.550245
C -1.268506 1.211320 -1.223383
C 2.137899 0.551739 0.312151
C -1.331920 -0.805395 0.331596
C 0.713579 0.398847 -0.256743
C 0.138006 -0.683546 0.387524
C -2.073884 0.515734 -0.160198
H -1.763992 1.944358 -1.849227
H 2.095863 1.174152 1.142870
H 1.225310 -1.632304 2.040255
H 0.629434 1.071492 -2.273307
H -3.045328 0.315908 -0.449921
H -1.734487 -0.999867 1.391768
H 1.451414 -2.516847 0.461712
H 2.843134 1.023914 -0.418925
H -2.120334 1.258994 0.700121
H -1.712120 -1.578940 -0.278511