15
H6 C5 N2 O2
O 2.760142 1.044115 -0.310990
C -0.973952 0.833608 0.032611
C 0.179780 -0.186235 -0.449191
C 2.273714 0.317885 0.702743
C -2.109199 0.735531 -0.929288
N 1.150987 -0.347584 0.634751
O -1.197655 0.435891 1.348454
C -0.461866 -1.574443 -0.444362
N -3.011453 0.767655 -1.647170
H -0.470138 1.809306 0.052186
H -0.083311 -0.084671 1.745427
H 2.834287 0.101080 1.593067
H 0.519831 0.088704 -1.399137
H -0.260407 -2.113775 0.308079
H -1.150768 -1.827059 -1.237198