18
H9 C7 N1 O1
C 1.818614 -0.340008 -2.166816
C 0.920685 -1.000273 -1.353922
O -0.526232 -0.217801 3.214956
C 0.098903 -0.182581 -0.348057
C 2.515244 0.292431 -2.852508
C -0.270111 -0.860145 0.984267
C -1.587553 1.343817 1.780972
C -0.770731 0.098395 2.121829
N -0.548479 -0.791259 -1.510839
H -0.632229 -0.040288 -2.201403
H -1.938495 1.871275 2.656970
H 1.158428 -1.971096 -1.061082
H 0.367594 0.889735 -0.310421
H -1.058263 -1.584396 0.779650
H -0.997893 2.014972 1.185061
H -2.426984 1.048629 1.178950
H 0.615313 -1.368968 1.433138
H 3.262176 0.797579 -3.530711