15
H7 C5 N1 O2
O 1.067952 1.657609 -1.468906
C -0.713455 1.141979 -0.126258
C 0.640521 0.873347 -0.628701
C 0.402146 -1.461608 0.220310
O -1.259109 2.320350 -0.471724
N -0.823762 -1.018246 0.888376
C 1.354803 -0.319996 -0.069572
C -1.325577 0.168535 0.566277
H 1.828750 0.054706 0.852827
H -0.594333 2.727318 -1.143709
H -2.385412 0.422172 0.870810
H 0.927004 -2.188318 0.849669
H 2.130744 -0.636604 -0.740875
H -1.421325 -1.753288 1.157254
H 0.171041 -1.987984 -0.755769