11
H2 C4 N4 O1
O -0.613004 2.262579 0.066851
C -0.315008 0.190523 0.024242
N 1.283313 2.915015 -1.051769
C 0.639761 -2.035121 0.469091
C 0.629528 1.999826 -0.616893
N 1.579506 -2.652826 0.733158
N -1.192460 1.075021 0.438929
C -0.599919 -1.313274 0.212526
N 0.800717 0.584948 -0.566546
H -1.003960 -1.645614 -0.764192
H -1.208466 -1.381061 1.054604