18
H10 C7 O1
C -1.144746 0.273951 -1.081079
C 1.146243 -0.948429 -1.200271
C -1.191168 1.108605 1.344941
C 2.313159 -1.271868 -0.486805
C -0.733490 0.074030 0.335425
O -2.458675 0.784987 1.804340
C 0.312549 0.302085 -0.750059
C 3.257420 -1.606736 0.214751
H 1.395795 -0.672509 -2.263858
H -1.580313 1.195666 -1.387337
H -0.432803 1.194179 2.168598
H 4.160089 -1.780769 0.770356
H -0.723829 -0.987886 0.764978
H -1.153571 2.112793 0.805040
H 0.415933 -1.762150 -1.295008
H -1.586334 -0.604769 -1.595385
H 0.775476 1.264199 -0.656706
H -2.771743 1.324648 2.508075