21
H12 C7 O2
O -2.066297 1.514017 1.619813
C 1.700987 -0.373739 -1.942708
C -1.138816 -0.601315 0.696308
C -0.830085 0.657043 1.536626
C 0.268808 1.501495 0.898402
C -0.122893 -1.742012 0.591088
C -0.448879 -0.851600 -0.585144
O 1.154419 0.811997 0.102487
C 0.573771 0.191156 -1.135724
H 2.315169 -1.064494 -1.369984
H 0.751095 -1.632170 1.136914
H -0.932489 -1.302858 -1.432401
H -0.605426 0.321000 2.544130
H -0.188857 2.264094 0.279046
H 0.891570 1.933595 1.672921
H 2.379208 0.371742 -2.200229
H -0.485410 -2.778640 0.608128
H -2.372594 1.613398 0.710645
H -2.220298 -0.957910 0.750078
H 1.302611 -0.854059 -2.847391
H 0.074407 0.979218 -1.632994