17
H8 C5 N4
N 0.165553 -0.407612 -1.537466
C 1.382281 -0.633251 -1.072614
C -1.735939 0.876652 1.311240
N -0.505176 0.167821 1.811625
C -1.846033 0.397417 -0.080131
N -0.481243 0.050303 -0.431684
C 1.545420 -0.484130 0.291454
C 0.283240 -0.049068 0.691877
N 2.346271 -1.177651 -2.033841
H -2.566892 0.659152 1.948979
H 2.461079 -0.661548 0.860342
H -0.070547 0.634383 2.558579
H -1.523903 1.927588 1.386555
H 2.089525 -1.031652 -2.954432
H 3.244977 -0.795774 -1.851095
H -2.519331 -0.586257 -0.156397
H -2.269270 1.113616 -0.742974