19
H10 C7 O2
C -1.080309 1.320069 -0.436254
C -1.454325 1.167550 1.036187
C -0.683841 -0.110926 -0.790789
O 1.989169 -1.609595 1.343668
C -0.168197 -0.676832 0.533046
O -0.729566 0.130923 1.601903
C 1.334803 -0.629357 0.536691
C 1.670851 -0.568558 -1.009909
C 0.568619 -0.347579 -1.667730
H 0.559597 -0.193452 -2.786214
H -0.627455 -1.668548 0.798762
H -2.561089 0.987623 1.081049
H 2.642960 -0.779336 -1.319538
H -1.833936 1.743500 -1.049970
H -1.295318 2.045738 1.698765
H -1.514924 -0.659903 -1.227635
H 1.734784 0.293403 0.998602
H 1.617915 -2.460756 1.130083
H -0.169719 2.016059 -0.470740