23
H14 C9
C -1.696122 0.094770 -1.141069
C -0.469592 -0.404685 -1.982917
C -0.099464 0.451055 0.218779
C 1.980085 0.880934 1.525948
C 0.871371 -1.305077 0.623014
C -1.095569 1.367284 -0.445953
C 0.589071 -0.464337 -0.756095
C -1.656441 -0.808958 0.056250
C 0.690759 0.065783 1.375520
H -2.655817 0.181273 -1.704885
H 1.923212 -1.657260 0.627479
H 0.132338 0.014397 2.313030
H -0.668984 2.105181 -1.111495
H -0.165292 0.283806 -2.786705
H -1.605932 -1.892770 -0.178314
H 1.656185 1.947669 1.763968
H -1.798799 1.890086 0.255841
H 2.531750 0.550519 2.360928
H 1.528427 -0.024340 -1.098932
H 2.572245 0.825175 0.705464
H -0.592804 -1.371306 -2.491389
H -2.190090 -0.679278 0.956839
H 0.219468 -2.049909 0.914682