17
H8 C6 N2 O1
O 0.880530 -1.077503 -0.399274
C 1.594669 0.138646 0.245813
C 0.320944 0.425749 1.074908
C -1.962367 -2.056827 -0.803773
C 1.775488 1.325408 -0.701465
N 0.959549 2.310295 -0.324667
C 0.047152 1.866806 0.716680
C -0.322725 -0.668968 0.211409
N -1.536873 -0.992050 0.067206
H -1.080743 -2.504016 -1.210631
H 2.531797 -0.231704 0.617295
H -2.570018 -1.673964 -1.650668
H -0.976401 1.984830 0.321511
H 0.096760 2.564789 1.538226
H 2.353828 1.270967 -1.569893
H 0.434869 0.176642 2.132248
H -2.546474 -2.859063 -0.264932