20
H11 C7 N1 O1
C 0.222649 -2.088404 0.384147
N 1.202445 -0.846513 0.172895
C 0.479585 -0.404189 1.493226
C -0.044440 0.156055 0.211075
O -2.134286 -1.097198 0.929115
C -1.709245 2.023444 -0.097044
C -0.208177 1.579925 -0.129465
C -0.923422 -1.024669 0.636765
C 1.739350 -0.835059 -1.153556
H -1.762208 3.034364 -0.338938
H 2.521754 -1.495792 -1.261926
H 0.054740 -2.690805 -0.549196
H 2.215989 0.198856 -1.386155
H 0.966869 -1.053685 -1.951626
H -2.367811 1.441119 -0.711858
H 0.401872 2.232451 0.564936
H 0.524181 -2.706319 1.180409
H 0.169644 1.747228 -1.207206
H -2.126322 1.878720 0.950685
H 0.776843 -0.049494 2.263721