19
H10 C7 N2
C 1.213255 -0.362301 -0.232444
N -1.102609 0.449981 -0.056918
C -1.100851 -1.483071 -0.227022
C -0.170241 -0.300432 -0.835712
C -0.213144 0.093439 -2.322362
C 1.044725 0.079691 1.269129
C -0.367197 0.596629 1.204028
N -0.099235 0.332972 -3.365306
C -0.369375 1.693573 0.087045
H 1.984625 0.193380 -0.758449
H 1.613929 -1.403441 -0.336026
H -0.621509 -2.332771 -0.193860
H -1.938229 -1.609966 -1.098953
H 1.715159 0.875403 1.530545
H -1.038855 0.660898 2.174289
H 0.497942 2.098904 -0.252488
H 1.149048 -0.660500 1.991699
H -1.091041 -1.423903 1.216335
H -1.106374 2.501493 0.206512