21
H12 C9
C 0.557537 1.981829 1.427888
C -0.783789 -1.899793 -0.242251
C 1.412052 0.964340 0.603812
C -1.226590 -0.065074 -1.789637
C 0.459730 -1.385259 -0.391213
C 1.294998 0.813856 2.166540
C 0.605817 0.119816 -0.170464
C 0.292418 -0.308657 -1.526376
C -1.916343 -0.977632 -0.595439
H -2.733671 -1.489676 -0.955845
H -0.934545 -2.976552 -0.025141
H 1.376368 -1.995256 -0.252419
H 0.697338 0.025197 2.504753
H -0.495825 1.974065 1.356995
H 2.221751 1.046930 2.692428
H 0.976287 -0.246645 -2.339050
H -1.492623 0.977173 -1.724242
H -2.185526 -0.324708 0.269244
H 2.353797 1.309922 0.238387
H -1.451163 -0.546282 -2.751222
H 0.971971 3.002401 1.503225