23
H14 C7 O2
C 0.441506 0.010296 -1.879099
C -0.151087 0.451745 -0.449846
C 2.002553 -0.308003 0.694735
O -1.378074 0.693639 1.963689
C -0.950017 -0.627834 -2.189643
C -0.082982 0.074886 2.040246
C 0.754189 0.484753 0.815046
C -1.211541 -0.680989 -0.667090
O -1.528940 1.486921 0.986666
H -0.779486 -1.621528 -0.280032
H -0.956503 -1.595485 -2.777425
H -0.228101 -1.015012 2.057505
H 1.782615 -1.353243 0.497349
H -0.516238 1.538041 -0.785306
H 2.596814 -0.284052 1.573900
H 0.832979 0.714114 -2.570355
H 0.408781 0.270368 2.957439
H -2.194802 -0.550231 -0.267583
H -2.039212 1.634530 1.851519
H 1.181975 -0.801123 -1.765085
H -1.644343 -0.017845 -2.681259
H 2.670781 -0.025124 -0.152046
H 0.989155 1.521174 1.026679