21
H12 C7 O2
C -1.205779 0.794464 -0.952711
C 1.039211 -0.374054 -0.991436
C 0.858196 -0.394789 1.877344
O 0.115505 0.516273 1.069171
C -0.610127 -1.569832 0.326891
C 0.823317 -1.669242 0.975821
C -0.270819 -0.134181 -0.139684
C -0.776552 2.329940 -0.863160
O 1.733489 -1.285979 -0.109903
H -2.215375 0.690502 -0.602561
H -1.307973 2.848123 -1.598344
H 0.786318 -0.879886 -1.931041
H -0.788726 -2.249752 -0.408545
H 1.656915 0.455910 -1.093249
H -0.946758 2.661237 0.135729
H 1.839131 0.005095 2.026502
H -1.177897 0.488918 -2.039929
H 1.113580 -2.600010 1.413455
H 0.351247 -0.547712 2.824224
H 0.350985 2.495855 -1.020450
H -1.367889 -1.580919 1.101875