14
H5 C5 N2 O1 F1
C -0.013525 -0.712657 -0.495089
C -0.687331 1.185117 0.408963
N -1.906605 0.242074 -1.630386
C -0.936240 0.262017 -0.675944
O 2.553809 -0.881513 1.982461
C 1.914774 -1.106107 1.060474
N 0.802705 -0.420284 0.625975
C 0.351098 0.803821 1.082032
F 0.935421 1.275685 2.200365
H 1.981922 -2.072399 0.366810
H -1.242677 2.133457 0.580536
H -2.090966 1.203501 -1.961735
H 0.086742 -1.664449 -1.034683
H -1.749132 -0.248261 -2.509791