15
H8 C4 O3
O -0.445087 2.023770 0.501374
C 0.776220 -0.972209 0.756830
C 2.152565 -1.563876 0.793980
C -2.225935 1.443277 -1.251522
O 0.825797 0.215901 -0.092187
C -0.319652 1.028268 -0.161777
O -1.150493 0.466379 -0.989845
H 2.094306 -2.467823 1.395598
H 0.429955 -0.701583 1.741657
H 2.472690 -1.865934 -0.174146
H -1.876863 2.339017 -1.711684
H -2.724629 1.717543 -0.337924
H 2.916250 -0.868627 1.132880
H -0.020642 -1.645987 0.303965
H -2.904474 0.851888 -1.907183