11
H5 C3 N1 O2
O -1.407281 1.535938 -0.641562
C -0.260159 1.224632 -1.157149
C 0.219114 -0.850211 0.214833
O -0.502692 0.665652 1.909433
C -0.348489 -0.432150 1.535278
N 0.494195 0.136991 -0.823091
H -0.408248 -1.599450 -0.275807
H 1.264810 0.011797 -1.396909
H -0.494776 -1.307741 2.211926
H 0.220788 1.894685 -1.960165
H 1.222731 -1.280127 0.383222