21
H12 C8 O1
C -0.178189 1.450520 0.966679
C 0.278205 0.756670 -1.459477
C 1.437619 0.200201 -0.697975
C 0.140122 -1.914580 0.824730
O 2.634709 0.658009 -0.869715
C -0.457450 0.384864 -0.117127
C 0.522711 -0.881853 -0.153425
C -1.916326 -0.073862 -0.141307
C -0.254872 -2.779571 1.596378
H 0.836214 1.772523 1.059432
H -0.688016 2.353471 0.841076
H -2.003301 -0.950170 -0.917402
H -2.541516 0.786000 -0.486350
H 0.222346 1.822320 -1.721582
H 2.451127 1.621934 -0.932572
H -2.228208 -0.429479 0.766178
H 0.733981 -1.644493 -1.071537
H 2.055070 -0.808486 0.642683
H -0.597024 -3.543197 2.232356
H -0.431368 1.007364 1.958757
H -0.015817 0.211823 -2.319738