16
H8 C7 O1
C -0.780523 -0.959770 -0.401663
C 0.046791 1.254673 -0.617990
O -1.846861 0.628821 1.066173
C -0.757590 -0.252902 0.924313
C -0.348481 -1.679666 0.876310
C 1.477766 0.698397 -0.437001
C -0.515743 1.104150 0.794567
C 0.423241 -0.123246 -1.063595
H 1.989299 0.394651 0.437587
H 2.190185 1.066402 -1.218195
H -1.003456 -2.242089 1.450509
H 0.478229 -0.341198 -2.119293
H -1.638140 -1.275613 -0.923481
H -0.196023 2.093105 -1.205834
H 0.608230 -2.095244 0.784703
H -0.126937 1.729560 1.652889