27
H18 C8 O1
C -2.375978 0.818236 0.589474
C 0.040975 -0.324682 -0.643392
C -0.235221 0.910308 -1.690305
C -0.590086 -1.501359 -1.265860
C 0.552931 -0.667249 2.197246
O -1.231329 0.628236 1.347467
C -0.400472 -0.513505 0.971681
C 1.533314 -0.261530 -0.438381
C 2.095110 1.012489 0.116478
H 1.932839 -0.446789 -1.477808
H 1.101262 0.264308 2.498265
H -1.640694 -1.537659 -1.201342
H -0.291037 -1.511069 -2.305148
H 0.527171 0.862850 -2.503699
H -1.173523 0.787096 -2.186424
H 1.451446 1.648750 0.707705
H -0.238012 -2.445393 -0.838901
H -2.290544 1.348746 -0.357729
H -2.990468 1.526864 1.233863
H -2.970907 -0.096625 0.325475
H -0.027578 -0.929685 3.086553
H 1.279313 -1.449815 2.050989
H -1.043390 -1.429525 1.010598
H 2.320208 1.717930 -0.747059
H -0.183650 1.902310 -1.257354
H 1.902307 -1.180300 0.015596
H 2.946026 0.867082 0.762011