16
H7 C7 N1 O1
O 0.852796 -2.152016 1.985073
C -0.147329 1.264322 0.349030
C 0.301835 1.222568 -1.218856
C -1.119209 -0.009948 0.075760
C 1.084966 -0.633418 0.015906
C 0.049955 -0.291027 -1.089280
C 0.313530 -1.447621 1.211867
C -1.018849 -1.019271 1.089805
N 1.170377 0.689833 0.675791
H 2.048356 -1.075610 -0.236510
H -1.821111 -1.354828 1.699963
H -0.420655 2.063634 1.014970
H -2.048111 0.339216 -0.385318
H 1.294822 1.568184 -1.549215
H -0.433557 1.791265 -1.771348
H -0.107789 -0.955298 -1.867653