16
H7 C5 N3 O1
C -0.891609 0.334538 0.002115
N 1.325749 0.487245 -0.366687
C 0.720714 -2.439296 1.321750
O 1.317010 -2.823472 2.411063
C -0.711187 1.260225 -0.970974
C 0.393347 -0.156776 0.425918
N -1.586740 1.952264 -1.707079
C 0.931288 -1.111833 1.419430
N 0.657120 1.173602 -1.198076
H -1.253501 2.699798 -2.291980
H 0.867989 -2.900686 0.308597
H -2.409502 2.315348 -1.256514
H -0.520437 -1.906344 1.726867
H -1.928391 0.106115 0.394095
H 1.129904 1.768810 -1.838722
H 1.958230 -0.759562 1.620187