17
H9 C7 N1
C -0.468345 1.144264 -0.133185
C 0.600367 -1.149392 0.097981
C 0.805913 -0.050791 -2.053213
C -1.292761 -0.243277 2.979747
N 1.486355 -0.324264 -0.741072
C 0.835070 0.929647 -0.947771
C -1.094374 -0.264550 1.863424
C -0.687016 -0.325436 0.451303
H -1.607563 -0.195842 4.010430
H 0.499600 -2.018314 -0.301742
H -0.221531 1.776147 0.693814
H 1.483635 0.056443 -2.896091
H 1.181599 -1.317359 1.067937
H -1.515871 -0.735770 -0.073871
H 1.446517 1.840978 -1.036258
H -0.125872 -0.586990 -2.304678
H -1.325711 1.464487 -0.676747