13
H4 C5 N1 O2 F1
O -1.490264 -2.138564 0.085824
N 0.643705 -1.503848 -0.479435
C 1.207252 0.820364 -0.251425
C -1.026262 0.124033 0.333240
C -0.609219 -1.151245 -0.032731
O -0.247782 2.383418 0.579119
C -0.031137 1.175785 0.161814
F -2.222321 0.466539 0.832900
C 1.487994 -0.430685 -0.563179
H 2.024209 1.581254 -0.352176
H -1.055185 -2.960283 -0.159314
H -1.189596 2.426504 0.874344
H 2.508600 -0.793281 -1.028980