15
H6 C7 O2
O 0.808183 1.071345 1.295904
C 0.958577 0.186274 0.237068
C -2.597984 -3.428513 1.028958
C 0.788698 2.324845 -1.174438
O -0.480637 1.752764 -1.456957
C 0.677819 0.888203 -1.100997
C -0.793329 -1.646434 0.574998
C -0.014719 -0.846992 0.383605
C -1.758712 -2.644230 0.906566
H 0.962229 0.263966 -1.927070
H 1.990666 -0.131159 0.151611
H -3.257962 -4.147449 1.155595
H 1.446151 2.730502 -1.892776
H 0.609980 0.564392 2.080422
H 0.661041 3.062466 -0.262485