21
H12 C6 O3
C -0.771576 -1.574022 -0.792691
C 0.072972 1.446389 0.920150
O 0.321990 0.713836 2.050110
C -0.278262 -1.259588 -2.235214
C 0.737996 1.634734 3.101364
C 1.110731 -1.220054 -2.682508
C -1.212723 -0.331510 -0.123136
O -0.087888 0.613129 -0.150670
O 0.351160 -2.399838 -2.886542
H 1.360776 -0.745917 -3.577577
H -1.029760 -0.699989 -2.854338
H 1.728448 2.143067 2.855137
H 0.055670 2.357400 3.411257
H -1.434431 -0.415336 0.966418
H 0.957925 0.895019 3.951438
H 0.037515 -2.047965 -0.299815
H -2.030874 0.135652 -0.635668
H -0.890815 2.031948 1.156220
H -1.628483 -2.264389 -0.842556
H 0.750376 2.172022 0.600672
H 1.879258 -1.184598 -1.932053