18
H9 C5 N1 O3
C -0.612241 -0.146111 0.405783
O 0.119537 1.446982 2.128298
C 1.649305 0.475485 -0.332896
C 0.193133 0.405769 -0.695422
C -0.497267 0.381371 1.869193
N -1.036532 -0.408553 2.774267
C 0.095549 -0.119006 -2.178008
O -1.020596 -1.141457 -2.324064
O -1.490266 -1.005946 0.226493
H -0.221610 1.488978 -0.743999
H 2.219316 0.981748 -1.133961
H -1.659122 -1.161760 2.527439
H 1.780766 0.965938 0.554135
H -1.011187 -0.166197 3.821473
H 0.984252 -0.789610 -2.352533
H -1.520526 -1.206239 -1.496202
H 2.065836 -0.580372 -0.207312
H -0.038328 0.578977 -2.842706