20
H11 C6 N3
C -0.135098 -1.141473 -0.668692
C 0.054152 0.989562 -2.138579
C 0.309161 1.201616 0.443881
N -0.933537 -1.335213 0.539418
C 0.318223 0.321961 -0.829791
C 0.420798 0.272323 1.728463
N 1.293004 0.600832 -1.793705
C -0.871723 -0.603324 1.692852
N 0.140672 -1.976970 -1.563029
H -0.482583 0.427083 -2.890267
H -0.592080 1.855468 0.561863
H -1.751945 0.026073 1.859136
H 1.173508 1.878976 0.499721
H 1.271046 -0.382516 1.689907
H 0.441919 0.789342 2.680406
H -0.241819 2.078879 -2.082124
H -0.930010 -1.263695 2.551484
H -1.309777 -2.208084 0.604551
H 1.994306 1.341102 -1.479534
H -0.168180 -2.871971 -1.405933