19
H10 C7 O2
O 1.465397 1.009812 -1.085798
C 1.457105 -0.278001 1.063964
C -1.663036 0.700581 -0.180572
C 0.721905 0.130119 -0.240073
O -2.760180 1.092588 0.148403
C -0.068559 -0.933099 -1.102295
C -1.394088 -0.202302 -1.363130
C 0.026927 0.010324 1.782319
C -0.348400 0.918516 0.570031
H 2.288040 0.550929 -1.439308
H 1.791461 -1.364365 1.072875
H 0.530411 -1.253224 -1.875204
H 2.210258 0.297164 1.346303
H -1.271382 0.424037 -2.256089
H -0.233939 -1.751825 -0.418750
H -0.600774 -0.886350 1.922228
H 0.153768 0.485972 2.828336
H -0.086036 1.935621 0.766860
H -2.218880 -0.886469 -1.540110