18
H9 C6 N1 O2
C -0.466639 1.164401 -1.172750
O -1.965786 -1.750831 -0.498331
C -0.903298 -1.316217 -0.185038
C 0.010186 -1.548979 0.881330
N -0.037853 0.833642 1.808933
C 0.030286 -0.282853 -1.004776
C 0.690568 -0.283064 1.499052
O -0.076779 1.640133 -2.412315
C 1.063852 -0.686488 0.121582
H -1.551820 1.186170 -1.090912
H 0.141308 -0.731211 -1.962564
H 0.180265 -2.560149 1.370902
H -0.365008 0.900279 2.717116
H 0.378035 1.720394 1.640396
H 2.165393 -0.999214 -0.199867
H -0.698355 1.368745 -3.172914
H 1.489826 -0.582220 2.196644
H -0.084176 1.927471 -0.536525