17
H8 C5 N2 O2
C 1.139310 0.980610 -1.360877
C 0.431234 0.158679 -0.488850
O -1.730634 -1.069215 -0.774330
N 0.829008 -0.280688 0.867345
C -0.287545 -0.247682 1.917046
N 0.476873 1.230516 -2.470222
C -0.738634 0.457921 -2.409934
C -0.774789 -0.185035 -1.190302
O 0.189856 -0.650134 3.111434
H -1.366544 0.541479 -3.270402
H 2.079701 1.434074 -1.195462
H -1.060460 -0.962435 1.623725
H -0.656497 0.785491 1.956909
H 1.686944 0.353667 1.084370
H 0.978835 -0.142795 3.332271
H 1.203805 -1.320492 0.805299
H -2.400463 -1.083964 -1.538023