23
H14 C9
C 1.532959 -0.269945 -0.547100
C -1.519012 -0.952016 0.286415
C 0.665675 0.569361 -1.619451
C -0.292995 -1.799915 0.735089
C -1.181593 1.411284 -0.114351
C -1.578402 0.427548 0.950453
C 1.020822 -1.479309 0.188450
C 1.463606 0.953826 0.384340
C 0.214127 1.539234 -0.448419
H -0.534791 -2.887333 0.534297
H -2.426629 -1.544435 0.568859
H 2.423323 1.635797 0.216846
H 1.324466 1.114673 -2.339090
H -0.135261 0.116791 -2.198126
H 0.392791 2.663794 -0.883203
H -1.822435 1.959724 -0.622001
H 1.376466 0.912524 1.406435
H 1.730524 -2.269677 0.289167
H -2.531665 0.655656 1.344693
H 2.536943 -0.545974 -0.996337
H -1.543061 -1.006640 -0.832457
H -0.844010 0.527093 1.800194
H -0.271851 -1.732103 1.895325