19
H10 C7 O2
O -0.678415 1.594943 2.232774
C -0.555968 -0.073996 -1.152307
C 0.574426 -0.516893 -2.042217
C 0.337852 -1.244355 -0.734719
O 0.718422 1.907264 -0.297896
C -0.917189 0.709264 1.106373
C -0.436942 1.236188 -0.301187
C -0.379911 -0.639937 1.366627
C 0.932196 -0.915954 0.620519
H 1.693862 -0.177460 0.549977
H -0.026260 -2.314914 -0.803070
H -1.571256 -0.221661 -1.466325
H 0.350629 1.665822 2.242913
H -0.831004 -1.384423 1.886576
H -2.016039 0.687075 1.000893
H 0.272210 -0.966425 -2.903201
H -0.404656 2.349678 -0.351449
H 1.451519 0.088745 -2.066333
H 1.486538 -1.782966 1.112094