21
H12 C9
C -3.500090 -1.070439 0.562964
C 0.016775 1.747220 -1.039604
C 1.403934 -1.040171 0.933067
C -2.163328 -0.501489 0.326418
C 1.515943 0.594920 0.738050
C 0.233299 0.397875 -0.275457
C 1.242804 -0.739065 -0.640252
C -1.103356 -0.102884 0.138954
C 2.451900 0.285735 -0.401873
H 1.068394 -1.456776 -1.453681
H 2.288400 -1.510896 1.228478
H -3.583650 -1.473237 1.547968
H 0.568418 -1.358098 1.502615
H -0.728729 2.339902 -0.523940
H -0.381354 1.506268 -2.102101
H 3.409294 -0.267035 -0.227598
H -4.141338 -0.212733 0.544012
H 0.927000 2.334096 -1.185853
H 2.625262 0.988850 -1.150327
H 1.592917 1.290897 1.612521
H -3.742519 -1.752944 -0.134358