20
H11 C6 N1 O2
C 1.328126 1.465558 0.276006
C -0.243884 -1.686132 1.626252
O 2.089939 2.597463 -0.146096
C 0.419151 1.002810 -0.854573
C 0.615867 -1.920438 0.388779
N -0.226630 -0.837485 0.620257
C -0.507841 -0.138367 -0.611007
C -1.968880 0.297364 -0.688099
O 0.449531 1.637869 -1.910430
H 0.637817 1.830812 1.133640
H -2.228891 0.846481 0.198353
H -0.422258 -0.805112 -1.525415
H -2.644893 -0.608277 -0.744233
H 1.969922 0.720003 0.689347
H 1.701736 -1.821113 0.327234
H 1.729419 2.776569 -1.051208
H 0.232949 -1.371888 2.480594
H -1.180579 -2.219332 1.746895
H -2.112669 0.931379 -1.541763
H 0.362039 -2.698103 -0.414533