20
H11 C7 N1 O1
C 2.117839 -1.273264 0.377873
C 3.127076 -1.466792 1.201766
C -0.927776 1.215449 -1.527738
O -0.963541 2.263145 0.706525
C -1.668702 -1.567150 0.313817
C -0.994924 0.990668 0.035083
C 0.039955 0.183568 0.591452
N -2.571583 -2.101745 0.429999
C 0.582151 -1.145876 0.048311
H -1.398687 2.990024 0.148904
H 1.789502 -0.609143 -0.875103
H -0.057699 0.120345 1.722341
H 0.992433 1.046719 0.556066
H 0.040708 1.639185 -1.748963
H -2.053402 0.662458 0.305168
H -0.887959 0.289281 -2.091161
H 3.960329 -1.591321 1.810971
H -1.659881 1.897777 -1.909489
H 0.198867 -1.437574 -0.831782
H 0.335303 -2.105752 0.735944