19
H10 C8 O1
C 0.002162 0.883434 1.388344
C 1.161484 1.369757 0.628227
C -0.040866 -1.525596 0.956841
C 0.335543 -0.082037 -2.158143
C -0.778392 -1.294662 -0.450676
C -0.220933 1.159983 -0.037777
C -0.571532 0.071474 -1.018589
O 0.005795 -0.366204 -3.335531
C 0.051356 -0.525330 1.703877
H -0.758267 2.094935 -0.259466
H -1.891219 -1.474093 -0.274775
H -1.568613 0.344397 -1.408960
H -0.523171 -2.101889 -1.130465
H 1.962531 0.753399 0.458408
H 1.465451 2.458747 0.737315
H 0.254670 -0.776182 2.821031
H 1.368806 -0.020907 -1.860566
H -0.584878 1.551255 2.083812
H 0.330058 -2.520462 1.157117