16
H7 C6 N1 O2
C 1.033649 -0.325567 0.761557
C -1.543439 1.448070 0.017351
O -1.025216 -1.623094 -2.098130
C 1.044920 0.806136 1.655946
C -0.824193 0.619422 -0.524825
N -0.133849 -0.431365 -0.152648
O -1.269162 1.173810 -1.597403
C -0.009257 -1.579735 -1.127455
C 1.116346 1.742481 2.398866
H 1.165220 -1.218759 1.336367
H -1.967496 1.961042 0.580353
H 1.934204 -0.276721 0.128386
H 1.129044 2.537132 3.062712
H -0.146509 -2.527051 -0.566561
H -1.465765 -0.696366 -2.294955
H 0.961507 -1.609403 -1.579590