14
H6 C4 N2 O2
N -1.836148 0.142460 0.660489
C -1.295134 0.125377 -1.106882
N -2.499246 0.307255 -0.422635
C 1.906151 -0.201886 -0.273126
C -0.656158 0.010091 0.027402
O 0.807950 -0.147123 1.810348
C 0.674429 -0.109124 0.619361
O 3.068756 -0.168927 0.404436
H 1.823184 -1.152311 -0.838159
H 2.814655 -0.295335 1.385066
H -2.033115 0.225876 1.639875
H -1.144547 0.100698 -2.144958
H -3.424232 0.541744 -0.720037
H 1.793450 0.621193 -1.041179