17
H8 C6 O3
O -0.357211 -1.463825 1.142467
C -0.331546 0.965384 1.372481
C 0.170569 0.357855 -1.324884
C 0.460432 -1.138293 -1.288511
C -1.032336 -0.363434 1.630566
O -2.026875 -0.574401 2.305279
C 0.678348 -0.944915 0.260355
C 0.698277 0.559961 0.247190
O -1.141223 0.689582 -1.581036
H -1.050246 1.628692 0.980386
H -0.428543 -1.708203 -1.486785
H -1.309064 1.603642 -1.612063
H 0.174591 1.312851 2.202576
H 1.689302 1.083631 0.360080
H 1.692877 -1.475313 0.647404
H 0.826338 0.946244 -2.006882
H 1.286286 -1.479464 -1.848616