15
H6 C6 O3
O -2.029312 1.812316 -1.071817
C -0.532852 -0.177110 -0.108365
C 0.777072 -0.707773 1.998182
C -1.083391 0.893070 -1.090322
C -0.020434 0.340969 1.262540
C -0.215477 0.639553 -1.958137
O -1.042729 0.614217 2.048765
C 0.476773 -0.560535 -1.178130
O 1.490687 -1.602831 1.532810
H 0.540637 1.298986 1.002236
H 0.761839 -0.549028 3.133550
H 0.482918 -1.529880 -1.641485
H 0.074649 0.927612 -3.057053
H 1.525822 -0.346095 -0.903163
H -1.206211 -1.053488 0.030406