24
H15 C7 N1 O1
C 0.383536 -2.642506 0.645765
C -1.028360 0.217089 0.429552
C -0.937806 0.248550 1.943959
C -0.540602 1.531915 -1.769467
C 0.421234 -1.777930 -0.581835
C 1.293873 1.047077 -0.165241
N -0.579570 -0.668422 -0.519931
C -0.105380 0.745718 -0.502018
O -0.727868 2.893819 -1.450374
H -1.608994 1.088418 -2.055807
H -0.569158 -3.059067 0.827022
H 0.148574 0.176743 2.262466
H -2.081121 0.447333 0.222289
H 0.653742 -2.088439 1.613093
H 0.188653 3.305271 -1.184792
H 1.687942 0.489491 0.656973
H 0.019778 1.356214 -2.633067
H 2.053420 1.060477 -1.031358
H 1.125854 -3.461383 0.528288
H 1.379952 2.179396 0.229543
H -1.414988 -0.528549 2.363779
H 0.171515 -2.343463 -1.419883
H 1.369466 -1.379510 -0.794442
H -1.303697 1.161747 2.385489