19
H10 C7 O2
C -1.690900 -0.894972 0.667555
O 1.744616 0.265197 -0.137538
C -0.468621 0.679853 -0.833448
C 0.951701 -0.535692 0.655322
C -1.582447 -2.169455 1.570985
C -0.477407 -0.281484 0.173877
C 0.971910 0.883111 -1.208722
O -2.805882 -0.607127 0.281463
C 1.356475 2.344600 -1.329106
H -1.308078 1.003824 -1.370897
H 1.054264 -0.307153 1.728222
H -1.052292 -1.853262 2.560404
H -2.531184 -2.630153 1.830754
H 0.810585 2.849041 -2.085534
H 1.193942 2.953310 -0.344277
H 2.401882 2.441706 -1.534398
H -0.926347 -2.893685 1.106372
H 1.182196 -1.608162 0.484143
H 1.175602 0.360500 -2.215196