21
H12 C6 N2 O1
C -0.460291 -0.229497 1.294320
C -0.162478 1.164809 -0.565435
C 1.103749 1.323636 -1.403490
N 0.172475 0.881918 0.861208
C -0.988033 -1.090502 0.149667
C -0.039811 -2.218376 -0.342769
O 1.877134 2.336219 -0.700146
C -1.052637 -0.026643 -0.869785
N -0.618899 -0.382850 2.653557
H -1.581813 -0.071648 -1.770767
H -0.411388 -2.735986 -1.201608
H 0.929699 -1.781836 -0.592135
H -0.990987 -1.250206 2.940965
H 2.735913 2.417066 -1.177041
H -0.739949 2.068161 -0.604881
H -1.055774 0.396408 3.162529
H -1.950616 -1.458229 0.404947
H 0.696115 1.508064 1.248662
H 0.078554 -2.967955 0.355015
H 0.840674 1.698789 -2.334611
H 1.618382 0.418655 -1.508192