19
H10 C8 O1
O 0.668224 -0.174772 -2.974669
C -1.452307 -1.101867 -0.093830
C -0.916531 -0.856323 -1.358836
C 0.382335 -0.487447 -1.810444
C 1.495660 1.008627 -0.118317
C 1.560542 -0.356465 -0.811321
C -0.698883 0.888659 1.298321
C 0.534422 1.472424 0.779147
C -0.893904 -0.642392 1.187611
H -1.595480 -0.963172 2.031295
H 0.693862 2.423008 1.169459
H 2.358365 1.615296 -0.279687
H 1.582982 -1.182350 -0.037868
H -1.623036 1.358025 0.854945
H -0.770956 1.202460 2.375784
H 0.087629 -1.152931 1.449964
H -2.397343 -1.662606 -0.101135
H -1.583776 -0.941757 -2.204528
H 2.568184 -0.446398 -1.355912