17
H8 C5 N2 O2
C -0.221048 0.234108 0.510074
C -2.295403 1.078846 -0.556925
N -1.237731 0.311731 -0.495692
C 0.858589 -0.732858 0.160805
O -0.328144 0.946272 1.463767
N -3.070685 1.126749 -1.585505
C 1.807125 -0.108341 -0.927044
C 1.664053 -1.111035 1.411534
O 2.910949 0.342963 -0.660372
H 1.285252 0.140196 -1.853280
H -2.449991 1.674108 0.387569
H 2.585997 -1.652656 1.180133
H -3.804319 1.778792 -1.424175
H 0.483812 -1.615110 -0.351523
H 1.959609 -0.290849 1.973162
H -1.188898 -0.354094 -1.310259
H 1.040836 -1.768817 2.077734