13
H5 C4 N3 O1
N 0.868810 -0.655783 -2.146733
C -0.196005 -0.183831 0.035815
C -0.668734 0.414833 2.062859
O -1.045980 0.589920 3.162121
C 0.448429 1.004319 0.080542
N -0.877568 -0.557771 1.121782
C -0.136084 -1.175915 -1.298367
N 0.168108 1.345364 1.361822
H 0.472983 2.251787 1.822086
H 0.929805 -1.300099 -2.906455
H 0.035592 -2.197527 -0.926190
H -1.081874 -1.075485 -1.773488
H 1.082501 1.540195 -0.595802