17
H8 C7 N2
C 0.892039 -0.558400 -0.811470
C 0.052174 0.878138 0.533290
C -1.787307 -0.131510 -0.420654
C 0.379565 -1.219083 0.405020
N 1.934000 -0.157552 0.059953
C 0.131142 0.748667 -1.082350
C 0.877985 0.074031 1.603938
N -0.927310 -0.364878 0.665996
C -1.314952 0.473006 -1.515796
H 1.801997 0.317217 2.054458
H -0.310553 1.830457 0.883842
H -1.679986 0.728843 -2.333385
H 0.863993 1.391719 -1.507513
H 1.184646 -1.334426 -1.606974
H 0.175093 -0.109736 2.551031
H 0.566804 -2.125349 0.833860
H -2.839336 -0.441132 -0.313222