20
H11 C5 N1 O3
C 0.155483 0.602561 -0.495913
C -0.084014 -1.034202 -2.508721
O -1.047730 0.463605 3.934056
C 0.215097 -0.929372 -1.041937
O -0.535102 -1.819317 -0.173455
C 0.796769 0.854804 0.916321
N -0.176714 1.110153 3.037580
C -0.030834 0.327310 1.975899
O 0.804772 1.429938 -1.449690
H -1.107217 1.053678 4.707382
H -0.046157 -2.068189 -2.851260
H 0.650134 -0.420640 -3.057104
H -1.432077 -1.717507 -0.542571
H -1.103091 -0.657525 -2.762933
H 0.215464 1.663516 -2.169990
H 0.989860 1.925965 0.918363
H 1.799618 0.334868 0.904633
H -0.452935 -0.579239 1.907648
H -0.916418 0.755709 -0.458065
H 1.305096 -1.296126 -0.790225