18
H9 C6 N1 O2
C -0.419211 0.506925 0.284607
C -2.157958 2.262915 0.503734
C 0.860668 -1.659802 -0.365289
C -1.467577 1.346311 -0.437513
O -1.528455 1.292401 -1.764153
N 0.178825 -0.462989 -0.450139
C 0.722362 -0.772290 -1.668781
C 2.018396 -1.750221 0.608229
O -0.278478 0.618635 1.431253
H 2.089767 -0.726220 1.159339
H -2.923241 2.793784 -0.151656
H 0.376260 -2.613677 -0.562813
H 1.696765 -0.291427 -1.986294
H 1.733548 -2.495486 1.293666
H 3.002064 -1.908375 0.149138
H -1.455380 2.948415 1.023269
H -2.687047 1.694339 1.284268
H 0.088817 -0.946809 -2.445757