16
H7 C6 N3
N -0.192100 -1.210970 -0.689348
C 0.269486 1.676612 1.710771
C 0.087988 0.898061 0.461955
N 0.089706 -1.470475 1.548854
C -0.282365 -0.052175 -2.647686
C -0.373782 0.592381 -1.479870
C -0.062604 -0.592916 0.436465
C -0.228335 -1.392619 -2.065804
N -0.236928 1.407993 -0.668655
H 0.122887 2.729257 1.475537
H 0.739835 -1.098182 2.205269
H -0.349115 0.228946 -3.728861
H -0.191536 -2.263973 -2.490407
H 1.231076 1.459533 2.170272
H 0.329003 -2.452330 1.321363
H -0.472088 1.487515 2.465002