18
H9 C6 N3
N 1.266480 0.562227 -0.181210
C -0.089914 0.137110 0.159426
C -0.891889 0.888129 1.189780
C 0.677640 -1.608907 1.973534
N -0.485924 -2.338746 -0.016955
C -0.031933 -1.392089 0.629537
C 0.776452 1.127581 -1.436675
C -0.508385 0.378072 -1.331021
N 1.076354 -1.704587 2.878403
H -1.033365 -2.191069 -0.800055
H -0.164180 1.457839 1.773691
H -1.639235 1.643775 0.723301
H -1.533249 0.326278 1.835457
H 1.499756 0.904214 -2.272249
H 1.855215 -0.221632 -0.434948
H 0.844348 2.204381 -1.277880
H -0.590199 -0.523146 -1.977660
H -1.437064 1.029542 -1.486474