22
H14 C6 O2
C 0.122885 1.002165 -0.153708
C -0.450842 1.375131 -1.524117
C -2.086243 1.049791 0.786111
C 1.784812 -0.614292 0.987723
C -0.197829 -1.586263 -0.234536
O -0.592740 1.028454 1.031008
C 0.899490 -0.465884 -0.218507
O 2.581842 -1.854576 0.887589
H 0.418553 1.447396 -2.264879
H 2.539210 0.221017 1.032443
H -0.951405 -1.539699 -1.088884
H 0.881049 1.749109 0.108325
H -2.557735 0.127354 0.419324
H -1.144483 0.588484 -1.873103
H -2.403296 1.989569 0.162987
H -0.855251 -1.613757 0.704398
H 1.242677 -0.619076 1.933250
H -0.907638 2.363490 -1.432540
H 1.386746 -0.404145 -1.154624
H 0.300230 -2.579809 -0.347618
H -2.557615 1.227779 1.821012
H 2.984891 -1.931321 0.060589