20
H11 C8 N1
C 0.912953 -0.868187 0.033750
C -0.436623 0.897742 -1.110976
C -1.194113 0.135643 1.349630
N 0.289881 1.589425 0.022568
C 1.752412 0.009397 -1.031131
C 0.876792 0.800354 -1.890186
C 1.586609 1.422963 -0.725591
C -0.127624 0.215524 0.277091
C -1.745755 -1.310221 1.419600
H 2.668570 -0.480594 -1.433950
H -0.944101 -2.039872 1.799392
H -1.992708 0.836846 1.105444
H 1.523792 -1.026353 0.921378
H -2.175787 -1.662027 0.557186
H 0.595753 -1.816398 -0.350352
H -2.495163 -1.362726 2.278270
H -1.357187 1.238347 -1.412029
H 0.961068 0.953950 -2.907025
H 2.374212 2.173902 -0.667782
H -0.763070 0.392093 2.310099