17
H8 C8 O1
C 0.429012 -0.624727 0.704163
C -1.036266 1.305487 0.216720
O 0.302805 -1.270962 -1.650543
C -1.104643 0.928407 -1.285537
C 0.187273 0.206247 -1.693270
C 0.973006 -0.514419 -0.653758
C 1.642171 -2.235425 2.458961
C 1.067476 -1.491595 1.653471
C -0.629376 0.112546 1.040961
H -2.038334 1.622572 0.510288
H 2.102126 -0.583247 -0.706572
H -1.170344 1.813661 -1.864128
H -1.903240 0.194272 -1.506150
H 0.717778 0.594376 -2.480492
H 2.097780 -2.878759 3.110856
H -1.148744 -0.016358 2.017033
H -0.358396 2.144954 0.383841