18
H10 C7 O1
C 1.375877 -0.572317 -0.935762
C -0.933075 0.434690 -0.124599
C -1.566283 -0.609087 -1.078371
C 1.169700 0.841435 0.964462
C -1.002661 0.166507 1.310032
C 0.246275 0.338928 1.948356
C 0.704955 0.683603 -0.415795
O 0.459011 0.192345 3.208681
H -2.674549 -0.534686 -0.857822
H 1.133959 -1.520250 -0.355157
H -1.239234 -1.563468 -0.837204
H 0.991868 -0.865547 -2.031036
H 2.473954 -0.507705 -1.036187
H 2.072046 1.369311 1.248837
H 0.822420 1.545219 -1.027808
H -1.427082 -0.391288 -2.031481
H -1.858730 -0.107149 1.797782
H -1.411128 1.453742 -0.354264