20
H11 C7 N1 O1
C -0.239825 2.791983 0.685013
C 0.030174 -2.097086 -0.299500
C 0.382304 0.401527 -0.267867
N -0.568179 -3.194711 -0.750265
C -0.318062 -0.698178 -0.932466
C 0.885017 -1.831118 0.696735
C -0.354836 1.889029 -0.544914
C 1.206602 -0.518334 0.844495
O -1.060768 -0.161187 0.037753
H -0.779634 2.395905 1.489893
H -1.384470 -3.076029 -1.243322
H -1.408303 1.802445 -0.854465
H -0.617838 -0.607421 -2.025435
H -0.614080 -3.940408 -0.005828
H 1.980010 -0.047404 1.451127
H 0.821353 2.906897 1.001869
H 0.210388 2.392023 -1.375656
H 1.331464 0.679834 -0.753467
H -0.701262 3.804922 0.482683
H 1.168599 -2.631096 1.421358