21
H12 C8 O1
O -3.132230 0.521908 0.876122
C 1.075363 0.877883 1.173095
C -0.092190 -0.020369 -1.005112
C 0.200979 1.335504 -1.647207
C -1.621323 -0.241560 -0.826009
C 0.338189 -0.361214 0.567125
C -1.963170 0.017141 0.437089
C -0.955453 -0.617439 1.139672
C 1.189359 -1.607370 0.463293
H -0.277245 1.392695 -2.624732
H -0.381053 2.174351 -0.984029
H 2.102947 -1.510134 -0.114514
H -2.233454 -0.471537 -1.675836
H -1.079542 -1.162671 2.102199
H 1.375608 0.482112 2.192301
H 0.676916 -2.438971 0.016872
H 1.561689 -1.933005 1.488457
H 2.009761 1.078446 0.632916
H 1.250742 1.627365 -1.625682
H 0.428279 1.706626 1.268018
H 0.299307 -0.835641 -1.693406