19
H10 C7 O2
C 2.181551 0.721904 -1.158203
C -0.548566 -1.470285 -0.154622
C 0.305319 0.444274 0.740570
C -1.557028 -1.246165 0.878582
C -1.134431 0.189189 1.383716
O -0.213877 1.827301 0.207317
C 0.400671 -0.630989 -0.208071
O 1.663976 -0.735930 -0.863747
C -1.246372 1.079281 0.294834
H -2.644333 -1.286345 0.543405
H 1.480637 -1.173409 -1.713763
H 1.064130 0.657808 1.510214
H -1.455395 -1.915357 1.794085
H 1.461074 1.252604 -1.762173
H 2.360704 1.469938 -0.329637
H -0.568679 -2.429835 -0.684020
H -1.389362 0.530282 2.323478
H -2.135501 1.366498 -0.420013
H 3.138903 0.507360 -1.556149