23
H14 C8 O1
C -0.882972 0.123963 0.715886
C -1.460916 -0.996300 0.325071
C 0.342945 0.716190 0.067275
C 1.553724 -0.125553 0.520870
C 1.099434 -0.690429 1.941673
C -0.796498 1.507378 -2.358945
C -0.294704 -1.422104 1.522204
C 0.310309 0.902547 -1.531406
O 0.123865 -0.331217 -1.938050
H -2.466116 -1.178110 0.726428
H 2.472758 0.488424 0.529640
H 1.237587 1.474543 -1.752771
H 1.734260 -0.950326 -0.163972
H 0.039642 -2.457855 1.147371
H -1.305402 2.362546 -1.766518
H 1.780047 -1.383137 2.334623
H 1.074729 0.218925 2.570695
H 0.454905 1.732864 0.459289
H -0.413921 1.805439 -3.365533
H -1.382586 -1.452582 -0.708018
H -1.436347 0.865929 1.323767
H -0.797592 -1.536356 2.486999
H -1.674557 0.828598 -2.609448