18
H9 C5 N3 O1
C 0.532569 -0.342667 0.333998
N 0.950610 1.116595 -1.715335
C -0.614441 -0.119637 1.240879
N -0.997192 -1.066219 2.140379
C 0.420909 -1.739631 -0.368486
N -1.172809 1.134699 1.115437
C -0.261688 1.929395 0.285298
C 0.498908 0.892046 -0.543175
O 1.218692 -0.023383 -2.495548
H -2.114251 1.233555 0.867476
H 0.461724 2.490171 0.915366
H -1.827145 -0.807700 2.658301
H 1.572589 0.402337 -3.296344
H 1.467705 -0.317400 0.927845
H -0.380212 -1.779815 -1.167772
H 1.347799 -2.022457 -0.873776
H -0.805901 2.651991 -0.293358
H 0.214908 -2.506658 0.344323