15
H6 C5 N2 O2
C 0.354654 0.005124 1.315456
O 2.332384 -1.262998 1.950287
C -0.352240 0.015751 0.255360
O 0.101143 -0.889517 -0.791269
C 1.491705 -0.958410 1.152921
C 1.244113 -1.452297 -0.335649
N -1.039860 2.003899 -0.960831
C -1.559231 0.867568 -0.152440
N 2.049097 -2.199643 -0.960854
H -2.019954 1.206857 0.790194
H 0.160577 0.628360 2.243102
H 1.594148 -2.459019 -1.817803
H -1.822870 2.598394 -1.306115
H -2.312345 0.186873 -0.726949
H -0.508483 1.589853 -1.847391