15
H6 C6 N2 O1
C 1.013535 1.123224 0.532509
N 0.197459 -0.071807 0.155353
C 0.199916 -1.410860 0.545910
C 1.315275 -1.558052 1.574499
C -1.276084 -1.099165 -0.681342
C -1.341629 1.107315 -1.484475
O -2.364494 1.093411 -2.191740
C -0.898066 0.062335 -0.723180
N 2.071164 -1.711976 2.388278
H 0.396108 1.894013 0.967670
H -0.726377 2.077109 -1.390010
H 1.725230 0.775917 1.309335
H 1.602941 1.556293 -0.250697
H -2.011714 -1.718737 -1.045753
H -0.181897 -2.527027 0.530833