18
H9 C6 N1 O2
O 1.193843 0.033321 2.176982
C -0.099535 -0.942003 0.289319
C 2.308508 -0.159351 1.293086
N -0.737312 1.080091 -0.686201
C -0.695775 -0.328554 -0.924917
O -0.293691 -1.995433 0.822825
C -2.083331 -0.972505 -1.232162
C 0.854107 0.117577 0.801736
C 0.500722 1.409740 0.097109
H 0.284285 2.187564 0.829320
H -1.566237 1.315704 -0.021866
H 2.684379 -1.165589 1.139231
H 1.288296 1.765473 -0.590870
H -1.912654 -2.020630 -1.521801
H -0.023089 -0.470507 -1.788204
H -2.596890 -0.371032 -2.017909
H -2.739815 -1.037729 -0.330698
H 3.009735 0.609977 1.373817