19
H11 C6 N1 O1
C 0.529602 -0.974593 -1.625205
N -0.849291 -0.808428 -1.356485
C 0.902306 2.521823 1.125822
O -0.529774 2.246916 1.194213
C 0.366494 1.224621 1.631296
C -1.558741 -1.885239 -0.673048
C -0.032867 0.069822 -0.693206
C 0.389396 -0.097083 0.827734
H 0.396988 1.122688 2.652693
H -2.052520 -1.666763 0.231654
H 1.062158 -1.879087 -1.228588
H 1.496137 -0.454528 0.901315
H -0.992000 -2.786422 -0.566566
H 1.186952 3.252038 1.739661
H -0.157682 1.064387 -1.036571
H 1.289192 2.546160 0.012972
H -0.206360 -0.842088 1.257336
H -2.384001 -2.208546 -1.411893
H 0.847868 -0.689109 -2.657221