19
H10 C8 O1
C -0.271921 1.370081 0.177769
C 0.426746 -1.464619 -1.156747
C -0.995961 1.414728 -1.158808
C 1.298892 -0.456030 -0.435058
C 0.358051 0.047400 0.567917
C -0.991389 -0.971123 -1.114114
C -0.358017 -1.283828 0.196319
O -1.395122 0.215185 -1.639389
C 0.941753 0.111511 2.023342
H -0.160407 1.834931 -1.922647
H 1.514216 -0.894400 2.297527
H 0.766566 -2.276799 -1.651187
H -0.313969 2.193785 0.871434
H -1.669806 -1.671409 -1.407936
H 1.608951 0.948373 2.213803
H 2.445427 -0.369395 -0.598605
H -0.730226 -2.034239 0.891249
H 0.155482 0.138990 2.786424
H -1.726671 2.195774 -1.133400