10
H1 C4 N3 O2
O 0.192275 -1.161330 -1.817851
C 1.009152 1.001017 0.778825
O 1.734738 1.688220 1.232693
N 1.254932 0.286024 -0.465819
N -0.302865 0.564201 1.104966
C -0.762762 -0.245699 0.188965
C -2.032392 -0.854620 0.176012
C 0.298930 -0.491111 -0.851903
N -3.141182 -1.338617 0.109371
H 2.177476 0.455442 -0.948492