18
H9 C6 N1 O2
O -0.645946 0.578125 2.929029
C -0.516753 0.583350 1.748805
C 0.087417 0.436081 -0.511279
N -1.346216 1.425854 0.937973
C -1.006925 1.290449 -0.382141
C 0.492725 -0.145298 0.858754
C 0.525109 -1.643046 0.928080
C 0.748609 0.060975 -1.800802
O -0.068544 -0.632547 -2.647183
H 1.152814 0.980962 -2.238787
H 1.443390 0.251390 1.106377
H -1.549657 1.733910 -1.141313
H -0.965469 -0.458946 -2.406448
H -2.143608 1.939623 1.264805
H -0.363804 -2.082284 0.539391
H 0.530552 -1.905419 1.988903
H 1.445385 -2.095591 0.412781
H 1.595674 -0.581815 -1.457380