24
H16 C7 O1
C -0.277245 -1.201515 -0.305649
C 1.818145 0.150877 0.280979
C -1.923183 1.447608 -0.586286
C 0.522822 -2.379716 -0.770380
C -0.429368 1.435108 0.011352
C 0.434955 0.172244 -0.487559
O 0.508545 -3.410283 0.238321
C -0.476017 1.533952 1.542611
H 0.913215 -4.164067 -0.137102
H -2.503320 0.636522 -0.089857
H -2.343065 2.382968 -0.435224
H 0.064198 -2.730214 -1.806320
H 1.655346 -0.177881 1.309732
H -1.037761 2.510518 1.801727
H -0.950236 0.714606 1.992702
H -1.239285 -1.124183 -0.854937
H 0.654387 0.383170 -1.549414
H -0.478307 -1.294581 0.754667
H 1.613936 -2.191007 -1.060907
H -1.875482 1.243352 -1.687639
H 2.224170 1.238285 0.281627
H 2.502203 -0.363003 -0.203192
H 0.055903 2.263792 -0.452199
H 0.503738 1.680304 1.959137