17
H8 C6 N2 O1
C 0.824858 0.681508 -0.619955
O -1.151064 1.610758 0.579444
C 1.465255 -0.653822 -0.881495
C -0.445196 -1.685813 0.328806
N 1.325711 1.802896 -1.221306
C 0.702005 -1.816993 -0.304868
C -1.895197 0.510480 1.228578
N -0.238416 0.732552 0.006979
C -0.921214 -0.360053 0.555707
H 1.648850 -0.773003 -1.901647
H 0.680240 2.628126 -0.917999
H 1.067341 -2.842845 -0.455279
H -1.994589 0.536364 2.290420
H -2.956486 0.387305 0.811849
H 2.318492 1.995595 -0.811727
H 2.449645 -0.655010 -0.388258
H -1.134178 -2.522334 0.826999