14
H6 C6 O2
O 0.792939 1.801835 0.707791
C -0.501457 0.050361 0.235743
O 0.169762 -1.818588 -0.827562
C 1.426539 -0.320868 -0.433959
C 0.885671 0.461159 0.518704
C -0.570250 -1.389414 0.421836
C -0.675308 1.599722 0.379811
C -0.032704 -0.617365 -0.981439
H -1.594598 -1.794309 0.141184
H -1.186069 1.958707 1.241988
H 2.441218 -0.679288 -0.688740
H -0.384801 -0.439277 -1.983874
H -1.129523 2.137270 -0.506572
H -0.053904 -1.944808 1.300151