14
H5 C6 N1 O2
O 1.144832 -0.983286 2.193722
C -0.489080 0.658404 -1.074282
N 0.393555 1.481718 -0.225070
O -2.360903 -0.771389 -0.939938
C 0.996708 0.451554 -1.126125
C 1.260406 0.366167 0.350153
C 0.563265 -0.486779 1.282365
C -0.875050 -0.887011 0.933663
C -1.337468 -0.415642 -0.501449
H 1.590938 0.493637 -1.921363
H 2.346499 0.650147 0.715172
H -0.962358 -1.938292 0.898603
H -1.502489 -0.395612 1.657399
H -0.958445 1.249587 -1.884448