12
H3 C6 N3
C -0.477318 -0.608976 -1.561163
C -0.028084 0.563718 0.693146
C 0.927666 0.937994 1.678606
C -0.028514 -0.509485 -0.196800
N 1.683157 1.111103 2.567734
C 0.728359 -1.660160 0.333432
N 1.221677 -2.700414 0.712666
C -1.046703 1.624124 0.359357
N -1.900367 2.345601 0.283760
H -0.727223 0.444286 -1.975965
H 0.201890 -1.134109 -2.194455
H -1.466786 -1.207178 -1.442757