20
H11 C6 N1 O2
C -0.494188 -1.032007 -1.126920
C 0.456839 -1.055477 0.202070
C -0.053669 2.586333 -0.456611
C 0.291517 0.316714 0.735992
N -0.545045 0.417658 -1.528842
O -0.375337 3.098766 -1.721960
C -0.165676 1.105778 -0.501269
C 0.069163 -2.084851 1.219807
O 0.346851 -3.388340 0.634101
H -0.789042 2.964173 0.281726
H 1.200316 0.754661 1.174042
H -0.489981 0.450942 1.544200
H -0.908580 -1.991055 1.531065
H -0.146226 -1.687113 -1.894334
H 0.149138 -4.047103 1.357785
H 0.720474 -1.921128 2.146657
H -1.559109 -1.328639 -0.809452
H -0.321735 4.082672 -1.722726
H 0.893062 2.913460 -0.201310
H 1.473517 -1.231606 -0.138767