14
H6 C3 N4 O1
C 0.940490 -0.604592 -2.181132
C 0.346453 0.503872 -0.146940
N -1.745915 -0.750726 2.336741
N -0.385540 1.224088 1.856725
N 0.418894 1.485986 0.794199
C -0.934156 -0.017969 1.632739
O 1.085234 0.537163 -1.284131
N -0.447937 -0.436990 0.344743
H -1.956405 -0.333410 3.223278
H 1.611722 -0.416425 -2.994501
H -0.135376 -0.618325 -2.512749
H 0.770523 2.326410 0.678053
H -0.721400 -1.341826 -0.109972
H 1.153428 -1.557246 -1.637046