15
H6 C6 N2 O1
C -2.106155 0.333753 0.917057
C 0.476422 0.058724 0.974015
N 1.408820 -0.100163 -1.306961
O 0.480712 0.905135 -2.981057
C -3.099550 0.320118 1.539113
C 1.410171 -0.741594 0.017585
C 0.346410 0.457965 -1.845598
C -0.851024 0.306872 0.168831
N -0.862020 0.564611 -1.121646
H 0.917755 1.014467 1.241947
H 0.250092 -0.550147 1.899977
H 2.147674 -0.340619 -1.957813
H -4.021040 0.403788 2.035797
H 1.075923 -1.825199 -0.041914
H 2.425781 -0.807711 0.460690