15
H7 C5 N1 O2
O 0.168731 -1.721343 -0.114719
C 0.615793 -0.394893 -0.005225
C 1.924441 -0.235238 -0.674469
O -1.336425 -0.105312 -1.638581
C -0.379439 0.588580 -0.724780
C 0.706847 0.032720 1.461761
N 2.929517 -0.085254 -1.214470
C -1.815645 0.546471 -0.413842
H -2.204151 -0.095295 0.331347
H -0.227388 -0.117406 1.990610
H -2.467259 1.400816 -0.601544
H 1.042803 1.045656 1.557287
H 0.018720 1.452664 -1.125062
H -0.469518 -1.652707 -0.731952
H 1.492956 -0.659465 1.903649