15
H6 C6 O3
C -0.154106 -0.158258 -1.304238
O -0.656141 1.331563 0.351964
C 0.640798 1.294774 -0.205238
O -1.897900 -0.677279 0.317639
C 1.001295 -1.601315 1.972288
O 0.371301 1.261057 -1.566056
C 0.999028 -0.943028 1.022485
C -1.376492 0.314099 -0.439995
C 0.999278 -0.219339 -0.276616
H -1.726457 -0.449500 1.141120
H 1.923639 -0.288479 -0.828726
H -2.132962 0.882432 -1.017290
H 0.979915 -2.162895 2.859029
H 1.313821 2.132341 0.112032
H -0.285033 -0.716184 -2.138410