17
H8 C7 N2
N -2.483020 -0.719568 2.313659
C -1.547276 -0.687419 1.561124
C 0.656665 0.259595 -1.273113
C -1.393671 -1.065250 -1.527952
C -0.347945 -0.603323 0.684511
C 1.291925 0.963932 -0.074663
N -1.946889 -1.872862 -2.230005
C 0.677970 0.383149 1.227607
C -0.717038 -0.102363 -0.729633
H 1.423882 -0.211189 1.802522
H 0.669759 0.899917 -2.128144
H 1.229488 -0.630466 -1.470150
H -0.005890 -1.645604 0.665650
H 2.418152 0.947901 -0.007291
H 1.121587 2.068697 -0.043096
H -1.318995 0.827458 -0.606291
H 0.271289 1.187385 1.835271