19
H10 C8 O1
C 1.400181 -0.792117 -1.550241
O 0.495223 -1.220653 1.118855
C 0.303656 0.273482 -1.105702
C 0.505408 1.086640 0.179180
C -0.922054 -1.047584 0.761713
C -1.101981 1.117426 0.323047
C -1.021214 -0.183993 -0.571325
C -0.990505 0.243777 1.611676
C 0.466370 0.167201 1.478881
H 1.290722 0.342506 2.190667
H 0.103096 0.925365 -1.959375
H 1.701129 -1.439474 -0.816393
H 1.061185 1.996366 0.133921
H -1.486222 -1.923045 0.890362
H -1.532621 0.423482 2.563875
H -1.727068 1.995643 0.258159
H -1.839483 -0.498314 -1.166537
H 2.267270 -0.173902 -1.916732
H 1.026907 -1.292792 -2.424014