16
H7 C6 N1 O2
C -0.093112 -1.409949 0.908879
C 0.829379 -0.226972 0.601856
C -0.675986 -0.393413 -1.207308
O 0.663976 2.266275 0.405111
C -0.030148 1.037140 0.655322
N -0.340765 -1.632538 -0.579131
C 0.693783 -0.670045 -0.898967
O -1.959245 1.630002 -0.685076
C -1.122643 0.841791 -0.434792
H -1.153090 -0.509845 -2.145253
H 1.506761 -0.845302 -1.535916
H 0.925395 2.362868 -0.486021
H 1.793467 -0.125160 1.014446
H -0.983237 -1.235227 1.465083
H -0.475974 1.222111 1.620414
H 0.421423 -2.311736 1.301339