21
H12 C9
C -1.672058 -1.083657 -0.674793
C 0.413939 -0.330195 0.611236
C 1.628690 -0.640566 1.532943
C -0.424558 1.037982 0.840676
C 0.639884 1.716372 -1.268185
C 0.793316 0.252486 -0.863185
C -0.584773 -1.451759 0.343702
C -0.606945 1.011966 -0.700157
C -1.618020 0.199164 -1.256693
H -2.412131 0.575261 -1.902138
H -1.026035 -1.785243 1.274192
H -2.417275 -1.738650 -0.939740
H 1.034785 2.566067 -0.756524
H 0.226196 1.827657 1.245547
H -1.353202 0.884034 1.381079
H 2.249667 0.222234 1.632738
H -0.026950 -2.341893 -0.076660
H 0.605093 1.932897 -2.360075
H 1.188878 -0.942632 2.490337
H 2.193738 -1.476439 1.059647
H 1.167762 -0.435097 -1.613911