27
H18 C8 O1
C 1.051336 -0.888460 -0.360503
C -2.453450 2.535644 1.249919
C 2.995510 -2.513067 -0.698753
C -1.294522 2.134320 0.340591
C -0.809166 0.682107 0.501963
O 0.652070 -1.925377 0.368002
C -2.028363 -0.279277 0.509710
C 0.262269 0.379991 -0.652715
C 2.284244 -1.165090 -1.203919
H -1.695937 -1.336235 0.462117
H -3.451403 2.041278 1.062803
H -0.345002 0.170072 -1.616514
H 1.790362 -1.638871 -2.164377
H -2.247738 2.307609 2.361362
H -0.292616 0.571169 1.416164
H 0.845397 1.225136 -0.855833
H 2.343760 -0.173484 -1.936176
H -2.580060 -0.141056 1.413286
H 0.080037 -1.679375 1.064119
H 3.767830 -2.733629 -1.296510
H 2.812630 -0.317489 -0.415770
H -1.658356 2.248481 -0.637061
H -2.632153 -0.090027 -0.383818
H -2.638468 3.624051 1.265533
H 3.322358 -2.418365 0.367097
H -0.398334 2.757527 0.449406
H 2.317736 -3.377541 -0.610112