17
H8 C8 O1
C -0.475283 -0.354771 0.354813
C -1.876242 -0.548627 0.663529
C 0.817662 -1.156911 0.815359
C -0.383792 0.766317 -0.341013
C 1.900952 0.488122 -0.829559
C -1.633770 1.321337 -0.604807
O 0.795247 1.354898 -0.794209
C -2.569890 0.459251 0.030856
C 1.874551 -0.598820 0.170137
H 2.849994 1.134112 -0.743243
H -3.646810 0.612697 0.050339
H 0.659983 -2.176095 0.595987
H -1.904152 2.217555 -1.187132
H 1.994056 0.000244 -1.809210
H -2.238815 -1.381858 1.230524
H 2.962979 -1.044992 0.465334
H 0.873332 -1.092457 1.932301