16
H7 C7 N1 O1
O 0.392484 2.300231 0.173612
C -0.907602 1.593167 0.139708
C -0.626074 0.118758 -0.125060
C 0.793911 0.157602 0.358466
C -0.100127 1.578287 1.371895
C -0.481508 -1.001694 -1.114020
C -0.297067 0.004129 1.367625
C 1.059066 -1.471381 -0.919110
N 1.754430 -0.388071 -0.123282
H 1.529203 -1.585157 -1.879845
H 1.173793 -2.372610 -0.377706
H -0.002928 2.207021 2.251011
H -1.785353 2.160635 -0.071568
H -0.786347 -0.638391 2.086554
H -1.186440 -1.904753 -0.979843
H -0.529458 -0.757769 -2.158435