18
H9 C5 N3 O1
C -1.819450 -0.599850 1.232219
N -0.433668 -0.185723 1.119184
C -0.146172 -0.160158 -1.221211
N 0.440098 0.066742 0.067651
C 0.780105 0.490127 -2.334876
C 0.388700 0.071342 2.282753
O 0.021004 0.018413 3.433466
N 1.641776 0.373561 1.826942
C 1.595106 0.373355 0.604600
H 2.400378 0.567015 -0.105153
H 0.306341 0.333082 -3.314277
H 1.789674 0.130138 -2.355053
H -0.146851 -1.214412 -1.493925
H 0.760173 1.608765 -2.189979
H -2.053623 -0.700006 2.286953
H -2.429251 0.175301 0.721862
H -1.947154 -1.562651 0.718782
H -1.147185 0.214959 -1.279924