21
H12 C8 O1
C -0.851677 -0.968612 0.531435
C 0.652003 -0.608250 1.209094
C 0.437325 -0.669923 -2.313483
C 0.755125 -1.652579 0.116135
O -0.497719 2.478040 1.152927
C -0.253763 0.388559 0.565649
C 0.988940 -0.630614 -0.931809
C -1.180908 1.413307 1.684207
C 0.111872 1.806108 0.035335
H -2.201133 1.528454 1.410575
H -0.590861 -1.084326 -2.314493
H -1.428464 -1.354566 -0.233539
H 1.037842 -1.438155 -2.872576
H 0.979377 -2.639280 0.134945
H 0.411473 0.261981 -2.815869
H 1.220947 -0.613064 2.123710
H 2.025044 -0.314102 -0.818828
H -1.502037 -1.194256 1.489643
H -0.947408 1.181895 2.725868
H 1.199218 2.022868 0.043506
H -0.365180 2.086517 -0.922456