16
H7 C6 N1 O2
C -0.316383 1.180144 0.537166
C 0.247316 -1.033287 -1.187958
C 0.182524 1.412831 -0.858219
N 0.401738 -2.122863 -1.877535
C -0.733400 -0.583662 2.292028
C 0.487374 0.301596 -1.621711
O -0.629334 -0.041084 3.311593
C 0.078760 -0.242238 0.989834
O -0.185147 -1.219136 0.034697
H -1.346358 -1.500694 2.091847
H 0.785947 0.410118 -2.691488
H 1.150740 -0.266677 1.294045
H 0.753589 -1.939167 -2.789789
H -1.343682 1.347157 0.597489
H 0.257380 1.937882 1.179737
H 0.208956 2.359072 -1.301771