17
H8 C6 O3
C -0.817333 0.910708 -0.258597
O 0.596070 -2.802946 -1.346840
C 0.289086 -1.656591 -0.920337
C -0.812244 -0.304265 0.824926
C 0.090033 0.011963 1.936424
C 0.520774 0.941488 -1.042722
O -0.425311 -1.561429 0.127078
C 0.830340 -0.303696 -1.664054
O 1.477439 -0.475480 -2.696121
H -1.817558 -0.469573 1.098586
H 1.151656 0.192051 1.698521
H 0.081422 -0.837049 2.682779
H -0.284726 0.866320 2.543101
H -1.633639 0.729241 -0.961987
H 1.329240 1.211404 -0.381371
H -1.012985 1.840135 0.265211
H 0.437730 1.707696 -1.904611