18
H9 C6 N1 O2
O 0.954337 -1.958143 1.034118
C -1.004185 0.342224 -0.299148
N -0.995040 -0.607692 0.827026
C -0.768412 1.470912 0.686734
C 0.172842 -0.430121 -0.959726
O 0.248048 -0.654417 -2.300206
C -0.627434 0.403473 1.799741
C 1.459023 0.153012 -1.000596
C 0.215796 -1.550449 0.072049
H 1.122222 -0.949969 -2.709958
H -1.902003 0.316233 -0.933764
H 2.179412 -0.111963 -0.276868
H -0.036353 -2.494466 -0.603753
H -1.411290 0.483913 2.579741
H 0.323928 0.235098 2.264307
H 1.395948 1.126161 -1.371697
H -1.556333 2.170561 0.768760
H 0.229499 2.055658 0.423228