19
H10 C7 O2
C 0.481093 -1.949261 0.816476
C -0.698084 0.217342 -0.282895
C -0.465916 1.426421 0.462603
C 1.815828 -0.866178 -0.420433
O -0.229909 1.427914 -0.956292
C 0.987909 -1.307787 -1.559587
C 0.287930 -0.921940 -0.364481
C -1.672325 2.335621 0.890627
O 1.895119 -1.807907 0.605020
H 0.372630 1.456286 1.047850
H 0.037215 -1.578217 1.701962
H 0.924015 -0.689600 -2.477554
H 2.584889 -0.064684 -0.536635
H 1.061296 -2.407269 -1.788645
H -2.494445 2.190867 0.201140
H -1.979717 2.147542 1.897539
H 0.149894 -2.953408 0.554119
H -1.677572 -0.066435 -0.655117
H -1.379840 3.410673 0.864251