17
H8 C6 N2 O1
C -1.149209 -0.065115 0.312852
C -0.592888 -0.945044 1.386122
C 0.111460 1.881235 -0.569459
N 1.641925 -1.552166 0.493197
C 0.751023 -0.496289 -1.279241
O -1.408010 -1.495502 0.333246
N 1.472057 -1.412871 -0.762587
C -0.368804 0.451184 -0.876957
C 0.810513 -1.313436 1.420811
H 0.819124 1.907089 0.266050
H 1.138425 -1.507499 2.478979
H -1.127038 -0.878997 2.322159
H -2.034847 0.505410 0.498331
H 1.066049 -0.327603 -2.375546
H -0.707777 2.491823 -0.390786
H 0.623630 2.264441 -1.504545
H -1.045635 0.493346 -1.752629