15
H6 C6 N1 O1 F1
C -1.047484 -1.532205 0.285563
C -0.592753 -1.109410 -0.990304
C 0.441267 0.725786 0.289792
F -1.827863 -2.650007 0.348620
C 0.199924 0.104219 -0.872912
O -0.008473 0.177389 1.476855
C 1.237676 2.000622 0.522643
N -0.900438 -1.767427 -2.064180
C -0.767643 -0.930674 1.462195
H 2.133734 1.822318 1.196664
H 1.636194 2.363004 -0.422324
H -0.536613 -1.289546 -2.855180
H 0.606395 2.718860 0.991011
H 0.596338 0.552710 -1.774389
H -1.170258 -1.185655 2.405929