16
H8 C7 O1
C 2.148045 0.709571 -1.745603
C -1.333823 -1.220899 -0.738074
O -2.231227 -1.994015 -0.934317
C -0.749402 1.027033 0.349412
C -1.070412 -0.455557 0.540526
C 0.392583 -0.694748 1.131924
C 1.532522 0.694031 -0.699023
C 0.747474 0.704309 0.515280
H -0.483891 -1.064368 -1.514176
H 2.698946 0.732668 -2.700770
H 1.278792 1.332345 1.207791
H -1.153334 1.705686 1.123939
H 0.303060 -0.682226 2.206225
H 0.924726 -1.552572 0.704092
H -1.962749 -0.683302 1.217771
H -1.041321 1.442075 -0.665023