19
H10 C6 N2 O1
C -1.301932 -0.987651 -2.368723
N 0.758119 0.632058 0.444106
C 1.892635 0.209339 1.241848
C -0.412597 -1.516088 0.443115
C 0.164938 -0.405016 -0.344324
C -0.881907 0.064153 -1.404502
O -0.901675 -0.999318 -3.436963
C -0.199102 1.373268 1.292958
N -0.931397 -2.265139 1.095360
H 0.934966 -0.875310 -0.913309
H -1.764238 0.431254 -0.884563
H 0.301184 2.233850 1.735289
H 2.366803 1.091397 1.642862
H -0.455454 0.959294 -1.944576
H -1.983414 -1.761024 -1.908753
H -0.700459 0.790762 2.072472
H 1.598473 -0.489434 2.058667
H -1.018353 1.785561 0.654859
H 2.533425 -0.271958 0.524203