21
H12 C8 O1
C 0.170713 -1.725536 1.159631
C -0.092922 0.440467 -0.949909
C -0.951832 0.466212 0.326816
O 0.987847 -0.707535 -2.903021
C 1.178365 -0.622809 0.844582
C 1.292920 -0.100600 -0.552626
C -1.231978 1.931672 0.710218
C -0.168977 -0.274458 1.424531
C 0.464232 -0.792538 -1.605675
H 0.460323 -0.325305 -3.469275
H -0.333045 0.018660 2.472164
H -0.310937 2.427712 0.801746
H 2.074795 -0.511978 1.507604
H 2.212299 0.401353 -0.861334
H 0.403483 -2.330428 2.023797
H -0.234537 1.311035 -1.603542
H -1.976793 -0.044047 0.172790
H -1.849141 2.440737 -0.093776
H -0.010423 -1.800426 -1.415598
H -0.369216 -2.248361 0.375751
H -1.715200 2.046167 1.635138