17
H8 C8 O1
C 4.369751 -1.246577 -0.088986
C -1.524021 -0.508177 -0.580842
C -0.437993 0.551261 -0.761487
C 0.877433 0.030615 -0.519745
C 3.261388 -0.908886 -0.185040
O -1.859133 0.978588 1.245642
C 1.978618 -0.381542 -0.346495
C -1.836632 -0.430608 0.877943
C -0.875277 1.607706 0.444274
H -2.805253 -0.856965 1.159537
H -1.093506 -0.973257 1.499630
H 5.381308 -1.699817 0.071835
H -0.500574 1.112687 -1.698572
H -2.390974 -0.195451 -1.187770
H -1.368279 2.468850 -0.036369
H -0.032239 1.962012 1.041976
H -1.144597 -1.510455 -0.935533