15
H8 C4 O3
O -0.293341 -1.287141 3.240494
C 0.397674 1.329906 -2.026590
C -0.119557 -0.934976 0.902550
C -0.103329 -0.467398 2.353239
O 0.262927 0.172413 0.086520
C -0.078586 0.043195 -1.286731
O -1.405940 -0.065467 -1.434830
H -0.261662 2.142020 -1.746872
H 0.416094 1.118924 -3.073869
H -1.095152 -1.278974 0.635791
H 1.409280 1.649576 -1.621713
H 0.512324 -0.873115 -1.644285
H 0.579556 -1.767089 0.717402
H 0.970674 0.011247 2.581610
H -1.190947 0.206893 2.317268