14
H5 C7 N1 O1
C 2.347159 -1.602250 -0.860549
C 0.530869 0.116963 -0.244068
C -1.825369 -1.058897 0.625682
C 0.108138 0.761139 1.089152
C 1.498354 -0.816088 -0.513954
C -0.050378 1.508345 -0.765664
O -1.608248 -2.106922 1.029490
C -0.816829 -0.032846 0.421474
N -0.970355 1.514134 0.422603
H 0.473509 0.893631 2.124012
H -2.842405 -0.702221 0.406725
H 0.668498 2.310598 -0.835763
H -0.621325 1.447314 -1.766241
H 3.108370 -2.232869 -1.132906