16
H8 C5 N2 O1
C 1.279680 1.456783 -1.086555
C -0.071623 -0.961894 0.913548
N -0.051170 1.881742 -1.301251
C -0.199625 0.593992 1.010637
C 0.144084 0.724387 -0.506319
N -0.944678 -1.881418 1.565805
C -0.178982 -0.765310 -0.630619
O -0.615736 1.395907 1.843458
H 0.931853 -1.223900 1.195175
H -1.977982 -1.603720 1.294210
H 0.491913 -1.427488 -1.225276
H -1.189973 -0.939855 -0.935213
H 1.800986 0.903051 -1.932161
H -0.895460 -1.825719 2.595963
H 1.923383 2.123750 -0.559575
H -0.446678 1.549697 -2.241827