21
H12 C8 O1
C 0.953905 -0.062341 1.862304
C -1.052397 -0.719086 0.470148
C -0.579980 1.341389 0.216079
O -1.806146 0.578906 0.183229
C 0.964813 1.068986 -1.571357
C 1.292073 -0.072765 -0.704676
C 0.006466 1.906631 -1.109106
C -1.437390 -1.731991 -0.624865
C 0.201310 0.055579 0.513466
H -0.830051 -2.634274 -0.541075
H 1.334717 -1.062575 1.923346
H -2.456169 -1.943775 -0.479095
H -0.398887 2.784227 -1.493538
H -0.570136 2.055357 1.024092
H 0.271324 0.060487 2.703696
H 1.103689 -1.056733 -1.225052
H -1.271376 -1.192003 1.458429
H -1.285597 -1.242079 -1.604252
H 2.289223 -0.059931 -0.356200
H 1.459363 1.286674 -2.552130
H 1.811237 0.639311 1.906567