20
H11 C6 N1 O2
C -0.401987 -0.979248 -0.142747
C -0.463378 0.076977 0.849097
C 1.603756 1.543231 0.968441
O -0.248418 -1.413154 -2.430747
C 0.877560 1.545390 2.320714
N 0.851230 0.427298 1.477679
C 0.408068 -0.657809 -1.437155
C -1.611362 -1.521207 -2.013328
O -1.687098 -1.181917 -0.662532
H 0.332724 0.440188 -1.703799
H -1.157080 -0.255088 1.676830
H 1.437359 -0.917226 -1.384812
H 1.190834 2.134767 0.190280
H -2.220752 -0.811575 -2.584607
H 0.021416 2.241379 2.315767
H 2.645432 1.383801 0.945596
H -0.036241 -1.972364 0.221563
H -1.995579 -2.564395 -2.245415
H 1.427342 1.489567 3.183527
H -0.973810 0.991385 0.455659