18
H9 C7 N1 O1
O -1.025473 -2.762119 -0.494552
C 0.293795 0.388206 -1.677833
C 0.445569 1.095056 -0.438203
C -0.256806 -0.935590 -1.720893
C -0.571985 -1.670158 -0.555717
C -0.762787 -1.593526 1.876274
C 0.957515 2.492321 -0.360130
N -0.369246 -0.885953 0.679079
C 0.111838 0.382322 0.679864
H -0.608579 -0.963472 2.773322
H -0.142252 -2.516578 2.066151
H 0.220173 3.185514 -0.027165
H 1.275574 2.796237 -1.354957
H -1.794039 -1.934215 1.895835
H 0.502937 0.910385 -2.650200
H 1.849140 2.556828 0.347226
H -0.376228 -1.363467 -2.705029
H 0.250866 0.818207 1.666934