20
H11 C7 N1 O1
C -0.585225 0.401814 0.696013
N 1.666993 1.265607 1.560622
C -1.059968 -0.382051 -0.525299
C -1.396804 -1.814095 -0.710519
O -1.867717 0.760479 -0.864825
C -1.052633 1.591293 -0.073452
C 2.047452 0.444680 0.352935
C 0.895985 0.092187 1.057752
C -0.421078 -1.102205 -1.641401
H -0.663647 -0.870891 -2.665131
H 2.909461 -0.263330 0.436148
H 1.995893 0.985772 -0.592203
H -0.288392 2.132576 -0.646732
H 2.263415 1.012080 2.383820
H 0.708308 -1.300855 -1.459470
H -0.975409 -2.514542 0.017266
H -2.371340 -2.087801 -1.102316
H -1.620477 2.306916 0.492907
H 0.984851 -0.827794 1.728330
H -1.169686 0.170148 1.555553