20
H11 C6 N1 O2
C -0.376103 0.778478 -1.328308
O 1.411652 -0.247110 2.401155
C -0.857953 -0.693121 -1.356081
N -0.774218 1.545589 -0.115183
C 0.529678 -1.139263 -0.738652
C 0.481403 1.150784 0.590385
C 0.268563 0.409214 1.957788
C 0.981264 0.362566 -0.657740
O -2.022726 -0.899825 -0.607189
H 1.720511 -0.923754 1.880381
H -0.565924 -0.284504 1.805634
H -1.637773 1.123366 0.283863
H -0.084780 1.195267 2.666695
H 1.891700 0.602936 -1.074107
H 1.121906 2.000617 0.797942
H 1.123318 -1.786654 -1.413010
H -2.201396 -1.845018 -0.677439
H -0.942919 -1.040698 -2.404439
H 0.400711 -1.720768 0.220922
H -0.466896 1.411882 -2.232591