19
H12 C7
C 3.713066 1.030467 -1.604705
C 2.440002 0.394968 -1.296327
C -0.657478 -0.043190 0.404408
C -2.026073 -0.657824 0.716413
C 1.349130 -0.128220 -1.046920
C -2.723075 0.013699 1.883747
C 0.075387 -0.741383 -0.736182
H -2.611883 -0.662155 -0.189693
H -2.917919 1.087667 1.682460
H 0.187964 -1.834964 -0.484650
H -3.706421 -0.433782 2.100570
H -0.569529 -0.732829 -1.624228
H -2.130073 -0.000519 2.810575
H -0.029522 -0.061378 1.262660
H -1.800494 -1.743449 0.993182
H 4.238238 0.570682 -2.499149
H -0.854064 1.001145 0.159663
H 4.407030 0.835187 -0.743899
H 3.615736 2.105901 -1.787941