19
H10 C7 N2
C 0.431973 1.712659 1.147280
N -1.141694 -1.478148 -0.870929
C 0.258485 1.975279 0.239603
C -1.038782 -2.683611 -0.301824
C 0.539044 1.243434 -1.541466
C -0.387335 0.862679 -0.434685
C -0.431335 -0.567207 -0.077854
N -0.314903 -2.625288 0.791700
C 0.181251 -1.285010 0.997077
H -1.439569 1.286219 -0.681240
H 0.060045 1.673386 2.008788
H 0.176328 2.755447 0.621505
H 1.604143 0.962424 -1.357293
H 1.507904 1.296855 1.357336
H 0.018634 -3.369821 1.408226
H 0.725132 -1.031632 1.783711
H 0.302167 0.561086 -2.481462
H -1.525147 -3.564823 -0.678075
H 0.473663 2.276062 -1.930414