18
H10 C7 O1
C -1.634064 -0.986665 0.621918
C 1.469187 0.111493 0.435708
C 0.441317 -0.083774 -0.388937
C 2.688550 -0.252262 -0.296351
C 2.195679 -0.716084 -1.487461
O 0.803571 -0.606415 -1.550911
C -1.413544 1.555225 0.500071
C -1.053151 0.167062 -0.210314
H -0.891111 1.544811 1.525207
H -1.419989 -1.992702 0.177285
H -1.018917 2.321044 -0.086801
H -2.787314 -0.923277 0.677200
H -1.433461 0.135254 -1.171452
H 3.710094 -0.228263 -0.051001
H -1.288709 -1.034830 1.661403
H -2.512619 1.556278 0.615956
H 1.453394 0.613656 1.413062
H 2.691079 -1.180522 -2.384574