15
H7 C5 N1 O2
C 0.137383 -0.563853 0.246758
C 1.123735 -1.307254 1.155925
O 0.771780 -0.039541 -0.892117
N -1.885237 -2.116864 -0.580872
C 0.029424 1.098599 -1.316616
C -0.988279 -1.441726 -0.195649
C -0.730067 1.535129 0.009940
O -0.384243 0.537532 0.985011
H 1.924412 -0.626153 1.434151
H 0.706647 1.832418 -1.631111
H -0.704122 0.860169 -2.083578
H 1.587690 -2.177493 0.625036
H 0.621283 -1.700071 2.059378
H -1.826008 1.592321 -0.185201
H -0.384387 2.516785 0.368948