20
H12 C7 O1
C -0.256733 0.648763 -1.161532
C 0.605591 -0.053526 1.119180
C -1.251024 0.582424 -1.922233
C 0.261849 -1.600122 0.844033
O -0.450374 0.616956 1.804468
C 0.931573 0.580404 -0.307699
C -2.398412 0.594850 -2.817217
C 1.869198 0.016475 2.014876
H 1.239985 1.658155 -0.058074
H -1.148625 0.643190 1.177895
H 2.726053 -0.437812 1.554798
H -2.365747 1.560266 -3.327189
H 1.083507 -2.087502 0.404341
H -2.305561 -0.245146 -3.527343
H -0.656711 -1.599491 0.212468
H 1.749123 0.107892 -0.750937
H 1.645952 -0.475210 2.926375
H 2.072187 1.069046 2.279342
H -3.303011 0.434352 -2.305464
H -0.048793 -2.013977 1.839940