19
H10 C7 O2
C 0.919344 0.601940 0.132023
C 1.124931 -1.976573 -0.535540
C 0.290228 -0.680270 -0.526668
C -1.933694 0.308331 0.242746
O 1.274220 0.295828 1.508545
C 0.014339 1.853151 0.071814
C -1.395619 1.551038 0.460421
C -1.195147 -0.745914 -0.334196
O 0.633430 -0.852254 -1.657050
H 2.200948 -1.782080 -0.778762
H 0.425910 2.625663 0.653238
H -0.002038 2.170409 -0.969040
H 1.312945 -2.324494 0.463487
H -1.630226 -1.621861 -0.805258
H 0.560397 -2.867865 -0.937830
H 1.858398 0.750828 -0.387418
H 0.454414 0.225041 1.953341
H -1.970509 2.316268 0.927685
H -2.942290 0.152761 0.518492