19
H10 C7 O2
C 0.376308 -2.154294 -1.935638
C -0.405268 -1.227935 -0.970735
C 1.378265 0.294344 -0.004774
C 0.147177 0.203325 -0.949350
C -1.332219 0.995259 1.974033
C -0.396676 1.566151 0.861483
O -0.730565 1.144336 -0.438392
C 1.062365 1.051048 1.029943
O -1.303440 -1.553121 -0.332005
H -0.949644 1.389347 2.980240
H 0.413323 0.479616 -1.977785
H 1.437953 -2.193634 -1.694353
H 2.341978 -0.159575 -0.207665
H -1.273815 -0.071881 1.974926
H 0.313698 -1.865438 -2.984713
H 1.721286 1.320594 1.851007
H -0.420310 2.635823 0.873341
H -2.290838 1.364824 1.805302
H -0.089546 -3.218832 -1.854900