21
H12 C7 O2
C -1.128824 0.959116 1.095785
C 0.272563 0.930336 0.562046
C 0.823375 -2.027704 -1.774784
O -0.311486 -1.858068 0.378154
C 0.192610 -1.328297 -0.571538
C 0.152651 0.184510 -0.725081
C -1.906228 1.066095 -0.188249
C 1.361666 0.484084 1.583829
O -1.099699 0.560003 -1.298690
H 2.368097 0.463044 1.100354
H 0.573096 -1.660063 -2.695815
H 1.918047 -2.015598 -1.720190
H 1.157326 -0.589254 1.851996
H 0.530483 -3.083091 -1.698741
H -2.803138 0.451739 -0.222556
H -1.392154 -0.050377 1.541993
H 1.409273 1.136235 2.437722
H 0.950853 0.485830 -1.437119
H 0.504009 1.993503 0.340528
H -2.165977 2.123490 -0.388270
H -1.406534 1.774486 1.828647