15
H7 C7 N1
C -1.182608 -0.486384 -0.494258
N 2.529938 -1.151504 2.559146
C 0.632725 -0.461453 0.964101
C 0.527235 1.028661 0.505886
C -0.454300 0.164343 -1.714932
C -0.680831 0.989015 -0.488648
C -0.306478 -1.258280 0.396510
C 1.665171 -0.896266 1.856245
H 0.452355 -0.265954 -1.961692
H -2.218866 -0.671350 -0.613757
H -0.321637 -2.283815 0.516123
H 0.345647 1.646451 1.354285
H -1.145343 0.417193 -2.487302
H -1.288585 1.822802 -0.451977
H 1.445562 1.406541 0.060265