17
H8 C7 O2
O -0.740384 -2.136945 2.483112
C -1.794612 -0.631477 -0.615951
C -1.003951 -2.033072 1.309766
C 1.803925 1.886696 -0.189385
C 0.965622 0.616838 -0.645439
C 0.495339 -0.135490 0.534310
C -2.630293 -0.566130 -1.418489
O -0.570536 0.415680 1.237478
C -0.917611 -0.782509 0.483062
H 1.152964 2.566165 0.409034
H 2.658485 1.580829 0.419263
H 0.174467 0.941996 -1.303210
H -1.427007 -2.893684 0.726684
H 1.615721 -0.073448 -1.261374
H -3.287435 -0.524063 -2.237191
H 2.290218 2.436833 -1.058213
H 1.215091 -0.668191 1.126539