20
H11 C7 N1 O1
C 1.100401 0.306050 -0.011487
C -0.220689 0.495527 0.636313
C -0.176694 0.813205 2.169276
O 1.925686 1.480430 -0.277252
C -0.980976 -0.787370 0.228011
C -1.509053 -0.706462 -2.236383
C 0.859965 -0.362245 -1.364170
C -0.471215 -1.099472 -1.210999
N -2.286118 -0.427919 -2.940840
H -1.229352 0.946831 2.570791
H -0.360500 -2.218564 -1.314903
H -0.693390 1.376419 0.127764
H 0.238375 0.029629 2.719044
H 0.381929 1.710008 2.309799
H 0.746022 0.416873 -2.137420
H 2.081081 1.831553 0.595080
H -2.127271 -0.707961 0.301536
H -0.682959 -1.632706 0.901104
H 1.750981 -0.407533 0.603153
H 1.653765 -1.056291 -1.668398