12
H3 C5 N3 O1
O 2.505172 -0.866811 0.945401
C -1.776624 -1.414188 -0.388442
N -1.424278 0.963038 -0.660197
C 1.307870 -1.164894 0.621748
C -0.981959 -0.233579 -0.353470
C -0.397365 1.812493 -0.399870
N 0.671488 1.190024 0.048379
C 0.389809 -0.152048 0.141391
N -2.369120 -2.421587 -0.372875
H 0.957872 -2.167148 0.659235
H 1.555085 1.550443 0.332977
H -0.437967 2.904274 -0.574254