17
H9 C6 N1 O1
C 0.496384 0.063690 -0.616168
C -1.020407 0.100071 -1.086120
C 0.133724 -1.877747 1.100874
C 0.481420 1.655420 -0.536807
C 0.763929 -0.628815 0.695875
C -0.878540 1.626225 -1.227053
N -0.260439 -0.695467 1.781074
O -1.494434 2.447342 -1.770296
H -0.668896 -2.348449 0.445884
H -1.733246 -0.175613 -0.299306
H 0.362681 2.067265 0.501755
H -1.308003 -0.452641 -1.988663
H 0.748479 -2.610941 1.631210
H 1.826584 -0.485416 1.081695
H 0.139319 -0.631407 2.680598
H 1.253234 2.190368 -1.043228
H 1.158226 -0.243889 -1.351318