14
H5 C5 N2 O1 F1
C 1.735230 -0.823517 0.790548
C 1.512289 0.614457 0.791282
N -0.523273 0.530481 -0.281845
C 0.594958 -1.515025 0.277222
O 2.768752 -1.297018 1.226297
C -0.490629 -0.906219 -0.272228
N 0.423779 1.252644 0.288612
C -1.677537 1.145838 -0.755014
F 0.704443 -2.861584 0.181309
H -1.296980 -1.412727 -0.671499
H -1.424576 1.905523 -1.484484
H 2.279144 1.314946 1.070303
H -2.170198 1.654211 0.039511
H -2.435378 0.397978 -1.200018