11
H2 C4 N4 O1
O -0.944618 -0.495212 0.906860
C 1.085971 0.512161 0.585112
N -3.319722 -1.777245 -1.163383
C -1.105892 -0.557691 -0.414370
C -2.332845 -1.266249 -0.811106
N 2.152672 1.093679 1.041229
N -0.294509 0.011225 -1.275468
C 0.774232 0.467133 -0.836736
N 0.172780 0.037716 1.516670
H 1.514097 0.982063 -1.563063
H 2.297841 0.992416 2.014265