17
H10 C5 O2
C -0.027676 -0.188012 -0.102456
C -0.611776 -1.331251 -0.901256
C -0.923518 1.521083 0.644702
C -0.708586 0.139851 1.261949
C 1.516195 -0.226034 -0.059379
H -0.473639 -2.278202 -0.361994
H -0.070856 0.098038 2.149904
H 1.606694 0.712155 -1.747852
H -0.323162 2.343730 1.071881
H -1.634586 -0.428819 1.444838
H -1.679005 -1.199225 -1.071335
H 1.858494 -1.218096 0.292804
H -0.107053 -1.420076 -1.859359
H -1.957660 1.856571 0.569219
H 1.877345 0.504821 0.656903
O -0.426316 1.114750 -0.663238
O 2.085107 -0.001301 -1.325298