12
H6 C6
C 0.140931 -0.681708 -0.355158
C -0.153684 0.670704 0.359552
C 2.415425 -0.597243 -1.757429
C 1.382956 -0.616266 -1.126064
C -2.400193 0.602086 1.755631
C -1.397270 0.651628 1.120501
H 3.297163 -0.564897 -2.342243
H 0.694023 0.902219 1.032820
H 0.190851 -1.473949 0.402019
H -0.695777 -0.916545 -1.018162
H -3.299606 0.562483 2.324484
H -0.174795 1.461493 -0.395977