12
H6 C6
C -1.092866 -0.321117 -0.200319
C -0.456043 0.212205 1.067991
C 0.892202 -0.423558 0.633291
C -0.466750 1.065323 -0.220624
C 0.246907 -0.951082 -0.648419
C 0.899771 0.428936 -0.626448
H -0.922719 2.022429 -0.393785
H -0.908103 0.425921 2.020494
H -2.120466 -0.605382 -0.389577
H 0.495330 -1.827296 -1.229888
H 1.727912 0.806946 -1.218995
H 1.704811 -0.833304 1.206290