12
H6 C6
C 0.788719 1.150079 0.139266
C -0.027515 0.974618 -0.976267
C 0.831531 0.152775 1.130647
C -0.832420 -0.141668 -1.111622
C -0.811156 -1.130514 -0.142679
C 0.023677 -0.994859 0.978602
H -0.052152 1.767204 -1.745332
H -1.426913 -2.011972 -0.232093
H 0.052921 -1.770049 1.737371
H -1.462233 -0.265865 -1.984266
H 1.486643 0.257596 1.981409
H 1.428896 2.012656 0.224960