18
H9 C5 N3 O1
C -1.841716 0.612928 -0.712743
C 1.290881 0.601965 2.901968
N -0.228800 -1.261515 -3.200692
C 1.200059 0.196831 1.432226
C -0.657120 -0.622051 -2.150482
O -0.136197 0.541567 1.060419
N 0.208794 -0.494697 -0.987405
C -0.520849 0.196409 -0.233421
N -1.845823 -0.087396 -2.015105
H 1.376134 -0.897954 1.350878
H 1.194183 1.692140 2.921253
H 0.679288 0.088804 3.552410
H 0.536220 -2.000558 -3.030490
H -0.906632 -1.618981 -3.916712
H 1.878464 0.691077 0.792000
H -2.642911 0.226233 -0.135427
H 2.402696 0.425087 3.210637
H -1.986665 1.710045 -0.839321