20
H11 C6 N1 O2
C -2.025992 -1.363448 -1.839092
C 1.754185 0.274551 0.012915
C -0.700416 -0.695439 -0.092197
C 0.223207 0.443124 0.358717
O -1.165422 -0.348876 -1.351712
C -0.294073 1.852366 0.095973
C 1.850805 0.073920 1.489840
N 2.845182 -0.172200 2.318973
O 0.522475 0.206465 1.725469
H -0.095177 -1.561504 -0.051732
H -1.522474 -2.309804 -1.956337
H -1.452471 -0.733385 0.668922
H 2.452703 -0.259828 3.300491
H 2.034590 -0.630998 -0.581420
H -1.272321 1.987523 0.571169
H 2.293929 1.137679 -0.353521
H -2.481963 -1.026377 -2.730450
H -2.947355 -1.510559 -1.121005
H -0.393069 2.028627 -0.985116
H 0.373662 2.608175 0.520104