18
H9 C6 N1 O2
C 0.396749 0.009360 0.311210
O -1.433758 -1.216137 1.243294
C -0.796939 0.062783 1.093738
C 1.675108 -0.192041 -1.450209
C 0.740689 -1.139952 -0.833934
C -1.878883 1.116875 0.601459
C 1.351779 0.873019 -0.477469
N 2.097827 -1.404701 -0.742174
O 1.663522 0.361229 0.872552
H -0.486921 0.625919 2.060589
H 1.767735 -0.002582 -2.543512
H -1.529896 2.112538 0.392300
H -2.174181 -1.174433 1.788546
H 1.358340 1.925822 -0.575296
H -2.715678 1.191719 1.336581
H 2.333848 -2.111327 -1.486402
H -2.287333 0.753683 -0.359044
H -0.082038 -1.791768 -1.232210