18
H9 C6 N1 O2
C -0.930439 0.040562 0.432644
C -2.384558 0.396205 0.065885
N -0.073579 0.054030 -0.857051
O 3.132570 0.284193 -2.277027
C 2.235837 -0.239337 -1.644688
C 1.339559 0.515668 -0.685752
O -3.198512 0.715298 0.881354
C -0.448157 -1.166465 -0.280959
C -0.421812 0.475283 1.755221
H 2.185295 -1.311948 -1.583289
H 1.680988 0.364646 0.319226
H 0.283520 -1.799948 0.256086
H -2.636799 0.277003 -0.995134
H 0.097447 1.405972 1.811802
H 1.366234 1.596395 -0.918654
H 0.260595 -0.322947 2.158486
H -1.320150 0.490204 2.500371
H -1.168042 -1.774817 -0.938517