17
H8 C6 O3
C 0.972675 -1.451686 0.137028
C -0.770454 -0.426724 -1.100168
O 1.374858 -0.135726 -0.253393
C -0.524135 0.168997 0.893982
C -0.530710 -1.149655 0.204886
O 0.116144 0.359554 2.171703
C 0.167026 0.570474 -0.420189
C 0.468116 1.913006 -0.854085
O -0.006678 2.517503 -1.843684
H 1.196346 2.539010 -0.148832
H -1.193670 -2.009281 0.541853
H 1.408213 -1.631712 1.140711
H -1.797229 -0.065889 -1.255996
H -0.097898 1.285709 2.432554
H -1.604021 0.589592 0.949480
H -0.363290 -0.868424 -2.045796
H 1.184721 -2.204748 -0.550042