17
H8 C6 N2 O1
C 0.242309 -0.974979 0.225555
C -1.034283 0.883241 -1.873769
C 0.389747 -2.270997 0.985700
C -0.182085 0.770067 -0.631579
N 0.781692 -0.356295 -0.683342
N 1.133799 -1.961634 3.540466
C 0.356929 2.069184 0.009552
C 0.801204 -2.094670 2.390359
O -0.802501 -0.119636 0.453949
H -1.412093 -0.099244 -2.143176
H 0.951386 2.558944 -0.704170
H -0.473839 1.273166 -2.674070
H 1.153039 -2.864872 0.485707
H -0.466241 2.658497 0.288289
H -1.861190 1.542375 -1.615441
H -0.534014 -2.834033 1.071330
H 0.956155 1.820900 0.874635