23
H14 C8 O1
C 1.435745 -0.027522 -1.867409
O 0.465880 1.427735 2.059068
C 0.191536 -0.380006 0.455050
C -1.100746 -0.300071 -2.565685
C -1.338322 -0.171548 2.486878
C 1.070602 -0.837576 1.503228
C 0.756100 0.570232 -0.658518
C 0.121421 0.579286 -2.007358
C 0.004623 0.175675 1.808483
H -0.454215 -1.142527 0.046771
H -2.071440 0.202630 -2.156993
H 1.445457 -1.117606 -1.933670
H -0.138093 2.157007 1.915559
H 1.172224 1.462059 -0.271243
H 0.993072 -1.858180 1.904377
H -1.073840 -0.266020 -3.569652
H -1.034866 -1.258653 -2.158712
H 0.174790 1.621548 -2.479663
H -1.229297 -0.049357 3.548086
H -2.195001 0.443574 2.190535
H 2.336307 0.421941 -2.155095
H -1.614512 -1.237296 2.307441
H 2.082568 -0.415338 1.598514