18
H9 C7 N1 O1
C -1.262434 0.413516 -0.891837
C 0.505954 1.262302 0.374450
C -0.918863 0.724251 0.605679
C 0.187854 0.338550 -1.456555
O 1.466360 0.791453 1.232587
C -0.451596 -0.543828 1.406868
C 1.008402 -0.813743 -0.687400
C 1.018666 -0.541163 0.896005
N 0.666262 1.566320 -0.785871
H 1.643893 -1.257974 1.404257
H 2.054394 -0.762919 -1.027610
H -1.755826 -0.565546 -1.043782
H 0.365889 0.420412 -2.522302
H -1.619555 1.395370 1.071239
H 0.493930 -1.765244 -0.904777
H -1.868074 1.135998 -1.434886
H -1.024530 -1.470164 1.264308
H -0.510717 -0.327627 2.499533