19
H11 C5 N1 O2
C -1.747192 -0.580351 -1.346725
N -0.512452 -0.841337 -2.016527
C -0.548498 -0.840795 -0.521552
C -0.790840 1.016416 1.199121
O 0.715887 1.299497 -0.644470
C 1.329629 -0.328661 1.074917
O 2.370407 -0.742599 0.213626
C 0.143676 0.286728 0.235596
H -0.101149 0.026554 -2.366622
H -0.405063 -1.884409 -0.060065
H -0.234439 1.711331 1.850419
H 1.696418 0.384004 1.791859
H 3.139389 -0.065053 0.326467
H -2.592717 -1.346856 -1.384536
H 1.542561 0.796166 -1.044315
H 1.001632 -1.188267 1.638653
H -2.123023 0.438232 -1.429608
H -1.361685 0.297395 1.874352
H -1.522550 1.562023 0.609391