16
H8 C5 N2 O1
C -0.620859 1.246300 0.809515
C 1.055164 0.263475 -0.789200
N 1.351802 -1.684946 -2.370615
C 0.069975 0.217744 0.322833
C 1.303504 -0.818005 -1.685833
N 0.014944 1.078106 -1.280517
C -0.200918 -1.238939 0.974955
O -1.441219 -1.544043 0.446185
H -1.383757 -1.718886 -0.572797
H 1.989030 0.749362 -0.483266
H -0.958702 1.041837 1.992841
H 0.035970 1.945213 -1.294328
H -1.554035 1.312585 0.329777
H -0.019464 2.181827 1.002357
H 0.554362 -1.908312 0.626527
H -0.195780 -1.123313 1.971540