18
H9 C7 N1 O1
C 0.367202 -2.306286 -1.122894
C -0.429574 1.571546 -0.199219
O -0.317584 2.443281 -1.051233
C 0.997399 0.610544 0.735906
C 0.155807 -0.763362 -1.449152
N -0.489407 -0.463369 1.044500
C 0.044776 0.144321 -0.317676
C -1.052897 1.740057 1.220398
C -0.135542 0.610617 1.779185
H -0.389683 -2.612524 -0.484306
H -0.766914 -0.724955 -2.024604
H 0.972606 -0.376092 -2.135529
H 0.044885 0.363980 2.793398
H -2.086590 1.535867 1.244339
H 1.360540 -2.350001 -0.438359
H 0.560655 -2.863153 -1.940088
H 2.053340 0.761476 0.685003
H -0.888995 2.678087 1.660320