20
H11 C6 N1 O2
C -0.389085 0.045495 0.102929
C 0.843680 -0.421093 -2.182885
C -1.749556 -0.565878 0.509158
O 1.243498 0.144141 1.837943
C -0.250876 0.107197 -1.446550
O -0.255902 1.297537 0.682202
N 0.734124 1.009523 -2.045483
C 0.309073 1.146748 1.989182
C 0.864206 -0.753656 0.762332
H 1.282331 1.402087 -1.351872
H 0.746218 2.066689 2.270211
H -0.470582 0.772284 2.590726
H 0.512618 -1.597507 1.210299
H 1.665256 -0.800212 0.102356
H -1.254805 0.132707 -1.909427
H 1.713632 -0.979087 -1.734360
H -1.777589 -1.599109 0.220325
H 0.691951 -0.847683 -3.254439
H -1.913483 -0.502329 1.592169
H -2.544691 -0.057845 0.055177