12
H4 C4 N2 O2
O 1.190639 0.405647 1.430421
C 0.120194 -0.158764 -0.730291
C -0.637762 0.998857 -0.963235
N 0.177998 -0.893471 -1.855720
C 0.084430 -0.299871 1.845687
C 0.704234 -0.529944 0.549652
O -0.481808 -0.203822 -2.735083
N -0.995612 1.043354 -2.232957
H 1.373374 -1.402686 0.473309
H 0.256112 -0.990114 2.665756
H -0.869390 0.281064 1.876028
H -0.922401 1.749751 -0.323555