21
H12 C8 O1
C -0.060866 -0.427230 0.085834
C 0.455015 -1.520693 -0.770043
C 1.838815 0.759671 1.577109
O 1.343069 -0.462798 2.227036
C -0.575192 0.167536 -2.446833
C -0.873743 0.795478 1.735577
C -1.484458 -0.150924 0.659460
C 0.523317 0.281820 1.333301
C 0.369268 -0.158389 -1.362882
H 2.633146 0.602468 0.884140
H -0.884027 1.171295 -2.546413
H -1.517374 -0.439025 -2.393128
H -2.201131 0.200665 -0.038507
H 2.010308 1.616396 2.245340
H -1.136254 0.639778 2.730390
H 1.472550 -1.883562 -0.565786
H 1.286895 0.455496 -1.395167
H -0.968949 1.880670 1.418121
H -0.200237 -2.321792 -1.098745
H -1.867703 -1.090423 1.160975
H -0.162452 -0.116485 -3.439802