13
H4 C5 N2 O2
O -0.945861 -0.971647 -1.332331
C 0.026749 0.073214 0.034444
N -0.209886 -2.183449 0.476706
C -0.403534 0.607212 -1.040102
C -0.826896 -2.058581 -0.702249
C 0.257600 -1.085478 0.882900
N 0.264495 2.187034 -0.560107
C 0.570041 1.453886 0.460559
O 1.173927 1.892858 1.550968
H -0.706290 1.092956 -1.825570
H 1.290179 2.880994 1.361232
H -1.284193 -2.893298 -1.145913
H 0.793687 -0.995704 1.839477