19
H10 C6 N2 O1
C -1.733182 0.379261 0.434346
C -0.302420 -0.122099 0.206457
C -2.022922 -1.094488 0.718866
C 3.037537 -0.717812 -0.609230
N 0.823530 0.363485 -0.145341
C -2.494114 1.024735 -0.662791
C 3.109710 0.505658 0.269109
N 1.914212 -0.457605 0.190513
O -0.641733 -1.453871 0.451396
H -1.736144 0.990724 1.349872
H 3.590512 -1.573255 -0.404692
H 2.969944 1.500318 -0.197424
H -2.599610 0.333956 -1.518340
H 2.990465 -0.452312 -1.766193
H -3.502635 1.245197 -0.370541
H -2.043352 2.004026 -0.970061
H -2.774027 -1.561625 0.070097
H -2.252367 -1.397452 1.784783
H 3.666579 0.483183 1.169167