17
H8 C7 N2
C 1.053641 1.384333 0.817389
C -0.906244 -0.383790 -0.723894
N 0.153056 4.715923 2.239557
C 1.535267 0.109501 0.306987
C 0.482465 3.701202 1.786945
C 0.795482 2.430621 1.236642
N 0.931109 -1.088523 0.758568
C -1.696084 -1.630193 -0.905747
C 0.540099 -0.768942 -0.535654
H -2.766801 -1.417174 -1.080365
H -1.293458 0.139741 0.165078
H 1.651710 -1.805788 0.762087
H -1.039475 0.325226 -1.594723
H 2.533753 0.087986 -0.052001
H -1.348385 -2.177279 -1.790191
H 1.035035 -1.291297 -1.334063
H -1.661167 -2.331542 -0.056613