13
H5 C3 N5
C 0.533129 1.005349 -0.219114
N 0.266144 -1.524486 0.679036
C -0.766155 -0.841232 0.179541
C 1.465564 -0.887428 0.612702
N -0.719559 0.404821 -0.228089
N 0.687066 2.268246 -0.687199
N 1.632230 0.310649 0.155337
N -1.961459 -1.384170 0.067544
H -0.180947 2.658345 -1.159455
H 1.587314 2.572441 -0.923450
H -2.758938 -0.846273 -0.004188
H -2.070075 -2.322274 0.536779
H 2.285695 -1.413995 0.990517