17
H8 C6 O3
C -0.210819 0.824009 -1.189750
C -2.164814 0.074641 1.528025
C 0.380199 -0.101716 0.937755
C 0.992610 0.384594 -0.343685
O 0.877382 -0.279516 1.958964
C -1.115302 -0.271811 0.562921
O -1.248492 -0.086382 -0.776932
C 1.903931 -0.728525 -0.971601
O -1.871032 -1.301712 1.254765
H 1.273237 -1.593099 -1.172168
H -0.476871 1.817467 -1.009469
H -1.851447 0.321981 2.564477
H -0.023642 0.617149 -2.252748
H 1.580010 1.254947 -0.123572
H 2.602059 -1.032861 -0.206741
H -3.063561 0.463832 1.046098
H 2.416557 -0.362961 -1.806354