16
H7 C6 N1 O2
C 1.005791 0.301695 1.204259
N 1.642516 1.332887 1.751970
C -1.089090 -1.932036 -1.585645
C 0.983280 2.364645 1.583513
O -0.172657 2.230704 0.826894
C -0.251508 -0.095148 -0.413051
O -1.324071 -1.036704 -0.457048
C 1.155379 -0.647990 0.255907
C -0.474575 0.839161 0.782431
H -1.259903 0.481438 1.421193
H -1.055127 -1.377186 -2.514860
H -0.183057 -2.520209 -1.458720
H -1.979258 -2.537103 -1.531596
H 1.857637 -1.156992 -0.240309
H -0.114805 0.400004 -1.402636
H 1.259422 3.352831 1.777699