21
H12 C8 O1
C -0.542999 -0.710534 -0.370200
C 0.524693 -0.741049 -0.302356
C 1.536114 -0.605328 -0.233184
O 4.545188 0.688813 1.005250
C 2.877645 -0.538760 -0.060285
C -1.759539 -0.872762 -0.602053
C -3.937228 0.220255 -0.434015
C 3.244282 0.638238 0.853938
C -2.471155 0.442800 -0.100738
H 4.888675 1.433783 1.551641
H 2.742141 0.483006 1.845842
H -4.380687 -0.552533 0.098531
H 2.807355 1.583166 0.490765
H -2.238108 0.567609 0.946648
H -1.936644 -1.007280 -1.636992
H 3.405730 -1.431923 0.320246
H -2.163729 -1.753431 -0.035203
H -4.446978 1.137825 -0.130223
H -2.033890 1.276988 -0.658881
H -4.098605 0.094309 -1.520803
H 3.437713 -0.353192 -1.027897