19
H10 C7 O2
C -0.710721 -1.314724 -0.771156
C 1.042815 -0.322997 -0.561019
C -0.138150 -0.040203 -1.553800
C -0.524751 1.227395 -0.816424
C 0.745573 -1.799860 -0.486842
C -0.009461 0.413118 0.400617
C 0.266788 1.006602 1.758426
O -0.837931 1.498362 2.449053
O -1.069228 -0.614263 0.447165
H 0.957044 1.889629 1.611106
H 1.123277 -2.291061 -1.402583
H 2.043491 0.089059 -0.626356
H -0.015701 -0.074468 -2.647679
H -1.496018 0.788752 2.430851
H 0.127423 2.062935 -1.103129
H 0.811247 -2.407239 0.388938
H -1.540153 1.505907 -0.777115
H -1.574644 -1.835703 -1.106779
H 0.799119 0.218747 2.366732