17
H8 C5 N2 O2
C -0.355432 1.500154 -0.125108
C 0.833459 0.522218 -0.048845
C 0.043519 -2.978082 0.283625
O -1.431230 1.361210 0.486841
C -0.733332 -1.242574 1.115350
O 0.600361 -0.735937 0.588006
N 0.835843 -1.885079 -0.298576
C -0.162989 2.781312 -0.894361
N -1.128570 -2.354061 1.036767
H -1.478781 -0.528671 1.409367
H 0.711798 -3.470711 1.029174
H -0.207140 -3.607255 -0.541071
H -1.030523 3.471407 -0.804232
H -0.023460 2.518735 -1.890241
H 1.065151 0.335992 -1.165785
H 0.742530 3.343488 -0.515372
H 1.718772 0.967844 0.334486