21
H12 C7 O2
O 1.298104 -1.059133 -0.074662
C -1.483159 -1.272466 -0.885476
C -1.363260 0.060249 -1.684285
C -0.562405 1.053866 -1.491191
C -1.343372 -1.102995 0.641971
C 1.973406 0.705176 1.441986
C 0.860333 0.232827 0.546643
O -0.137196 -0.621334 1.146166
C 0.498386 1.181713 -0.483306
H -0.596586 -1.926973 -1.179572
H -0.184377 1.243688 1.236031
H -0.577535 1.782728 -2.210548
H 1.724781 1.584228 2.081208
H -2.443070 -1.670107 -1.093351
H -2.150139 -0.497110 1.020466
H -1.597818 -2.128443 1.118080
H 0.862523 2.117671 -0.481874
H 2.336086 -0.842593 -0.221375
H -2.071250 0.165930 -2.490731
H 2.788975 1.106732 0.851593
H 2.167553 -0.113707 2.212209