13
H4 C4 N2 O3
N 1.883420 1.707464 -0.359696
C -1.047403 -1.683824 -0.204795
C 0.921887 1.903965 -1.297149
C 0.179096 0.507223 0.071066
C -0.731781 -0.594262 0.756733
O -0.817860 -2.863872 -0.056458
N 1.367462 0.747594 0.512899
O -0.130639 -1.111970 1.923819
O -0.193973 1.069649 -1.042243
H 0.812985 -0.819826 2.020097
H 0.980016 2.555053 -2.066996
H -1.526083 -1.340563 -1.173634
H -1.697138 -0.076644 0.916342