23
H14 C8 O1
C 0.498180 -1.124274 1.346675
C -0.846278 -1.866218 1.050343
C 0.056443 -0.413165 -1.877465
C 0.577444 0.230211 0.549540
C 1.098039 1.746103 -1.292048
C -0.818889 0.696223 1.191259
O -1.994104 0.912953 0.281748
C -0.780919 -0.630651 1.984715
C 0.976228 0.339052 -0.939942
H -2.228337 0.056625 -0.116300
H -0.777477 1.559850 1.864355
H 1.479323 1.881909 -2.325043
H 1.948097 -0.140133 -0.946999
H -0.003742 -1.438560 -1.702923
H 1.294811 -1.616366 1.711213
H 1.322286 0.809505 1.102612
H -1.325901 -1.838509 0.204706
H 1.827338 2.318546 -0.658359
H 0.143062 2.269849 -1.241716
H 0.460071 -0.360708 -2.859145
H -0.925663 0.069616 -1.971799
H -1.100003 -0.708079 3.080880
H -0.880011 -2.753763 1.563689