22
H13 C8 N1
C 0.318628 2.410535 1.838240
C 0.570675 1.690770 -0.425887
C -0.405972 0.181277 1.010740
C -0.601417 -2.282939 -1.278714
C 0.067035 -0.515715 -0.168403
C -1.410994 -0.885993 -0.702934
C 0.452619 -2.099005 -0.206538
N -0.233742 1.617237 0.732359
C 0.946973 0.385144 -1.007487
H -0.666864 -0.181520 1.866921
H 0.828087 2.651807 -0.820281
H 0.394802 3.469221 1.588032
H 1.218718 2.062216 2.250656
H 0.165314 -2.604394 0.701481
H -2.099089 -1.286114 0.081529
H 0.722758 0.352570 -2.096302
H -1.215019 -3.169699 -1.227045
H -0.422468 2.382010 2.661618
H 1.536162 -2.298548 -0.511754
H -0.353855 -2.068947 -2.291570
H -1.861640 0.013189 -1.167603
H 2.049283 0.176924 -0.827056