17
H8 C7 N2
C -0.694536 0.942240 0.109582
C 1.177362 -0.430406 0.489366
C -2.006678 -0.322595 -0.038881
C 1.392582 0.661852 -1.437943
N 2.315125 -0.832166 0.017556
C 2.535239 -0.127582 -1.215750
C 0.241323 -0.657744 1.561742
N 0.554165 0.485892 -0.403337
C -0.948368 0.092101 1.234308
H -2.671702 -1.183708 0.621694
H 0.403576 -1.398726 2.250608
H -1.636889 -1.012084 -0.770321
H -2.846195 0.268429 -0.370768
H -0.867170 1.938293 0.002447
H 3.450531 -0.222111 -1.773387
H 1.161241 1.311508 -2.276698
H -1.559608 0.486810 1.999768