18
H9 C7 N1 O1
C 0.275987 0.453385 1.234173
C 0.081207 -0.184042 -0.058600
C -0.754839 0.462390 -0.908961
C -0.369932 1.820308 1.002083
C 1.239430 -2.500299 -0.498919
O -0.097567 -1.169187 -1.988201
C 0.459013 -1.320802 -0.729201
C -1.305903 1.752977 -0.237334
N -0.942971 -0.104355 -2.063759
H -0.324264 -0.038237 2.110853
H 0.453756 2.570404 0.714725
H 1.355885 -2.722575 0.594323
H -1.223897 2.596946 -0.955758
H -0.855751 2.254952 1.870826
H 2.321900 -2.511596 -0.843547
H -2.364485 1.578009 0.060069
H 0.788549 -3.469180 -0.955005
H 1.263893 0.530905 1.652241