20
H11 C5 N3 O1
N -0.737789 0.253860 -1.818052
C 0.577919 -0.515598 0.681902
C -1.354703 0.555545 -3.062176
N -0.258789 0.263927 1.059226
C 0.215142 -0.536299 -1.765173
C 0.841859 -1.208543 2.912745
O 1.342157 -1.164098 1.641502
C -0.331531 1.619776 1.169456
N 0.879927 -0.841942 -0.654358
H -0.008005 -1.803252 2.949745
H 0.660247 -0.942568 -2.714070
H -1.714480 -0.358586 -3.579381
H -2.184007 1.274220 -2.951825
H -1.265829 1.887021 1.754865
H 1.597150 -1.683695 3.575432
H 0.488906 2.004845 1.725383
H -0.637307 1.067008 -3.801416
H -0.351538 1.861177 0.222182
H 0.603485 -0.179748 3.314861
H 1.637179 -1.553054 -0.660857