14
H6 C6 O2
C 1.006147 -0.487808 1.055768
C -0.103857 -1.347417 0.502873
C 0.082391 0.676096 -0.872236
O 0.586792 0.809459 1.545457
C -1.391037 0.750546 -0.494208
O -0.450659 -2.502620 0.983483
C -0.661830 -0.635141 -0.705834
C 1.166391 0.699489 0.237696
H -1.000796 -1.254797 -1.537162
H 1.757884 -0.993822 1.678162
H 0.454513 0.995961 -1.875666
H -1.538504 1.035202 0.528122
H 2.127141 1.152732 0.142521
H -2.034575 1.102107 -1.188982