15
H6 C5 N2 O2
N 2.501432 0.819159 -0.153501
C 0.383734 0.172150 0.685294
C -0.856439 -0.328018 1.313838
N -0.095151 0.323845 -0.525872
C 1.754895 0.541498 0.870786
O 1.865497 0.866728 -1.430559
C 0.630514 0.608881 -1.590254
O -1.777408 -1.395680 -0.784807
C -1.483401 -0.272422 -0.125262
H 2.196026 0.527015 1.793703
H -0.917172 -1.966976 -0.908852
H -2.274916 0.485824 -0.225066
H -0.796842 -1.367500 1.685813
H -1.359873 0.381471 2.036798
H 0.229090 0.604012 -2.642072