13
H4 C4 N1 O1 F3
O -0.020649 1.003753 1.460956
C -0.772737 -0.221154 1.214865
C 0.822855 0.793419 0.356283
C 0.246426 -0.559425 0.014376
N 1.792402 1.539743 -0.102461
C -0.471315 -0.604530 -1.348753
F 0.475264 -0.651787 -2.311774
F -1.297058 0.376291 -1.571407
F -1.177590 -1.752955 -1.453851
H 0.872697 -1.387256 0.231482
H 1.863466 2.385030 0.403672
H -0.622998 -0.987106 2.139061
H -1.710771 0.065997 0.967552