17
H8 C8 O1
C 0.024156 -2.064014 -1.952231
C 0.628570 0.712671 0.156342
C -1.752731 -1.830098 -0.200203
C 0.196575 -0.312829 -0.367137
C 0.505863 2.491816 1.890822
O 2.377428 1.570244 0.945774
C 0.442325 -2.663114 -2.908619
C -0.484724 -1.384966 -0.865990
C 1.218380 1.903717 0.718238
H -2.145597 -2.732348 -0.730857
H 0.933520 -3.084244 -3.700665
H 0.340627 1.783810 2.671474
H -2.461747 -1.115624 -0.288485
H -0.556871 2.821265 1.578248
H 0.963415 3.388679 2.297677
H -1.581212 -2.144287 0.800519
H 1.352027 2.659304 -0.044909