18
H10 C8
C -0.536576 1.523540 1.465904
C -0.937546 0.087826 -0.394522
C 0.779389 -2.071029 -1.541285
C 0.794693 0.855821 1.012622
C -1.589105 1.228465 0.351866
C 0.360902 -2.781593 -2.398236
C 0.312912 -0.112010 0.028803
C 1.355535 -1.165519 -0.485224
H 1.654185 -1.744891 0.343660
H -1.453344 -0.480028 -1.194517
H 2.193878 -0.637256 -0.885689
H -0.504091 2.617850 1.637561
H 1.491142 1.606391 0.588305
H -2.599151 0.966831 0.710316
H -1.701464 2.084069 -0.376575
H -0.890923 1.067217 2.404492
H -0.017366 -3.399065 -3.181119
H 1.286954 0.353392 1.913636