25
H16 C8 O1
C 1.685336 -0.109328 0.538594
C -0.797907 0.701996 0.451323
C 1.023746 -1.114915 -0.420631
C 0.468640 0.329785 -0.259752
O -1.850489 2.418945 1.800724
C 1.652178 -1.371797 -1.735859
C 0.239390 -2.217234 0.261523
C -2.099051 0.538233 -0.418193
C -0.701117 2.178705 0.999537
H -2.161698 -0.528134 -0.707072
H 2.615270 0.285783 0.243155
H -2.962396 0.869675 0.119997
H -0.912494 0.085881 1.354348
H -0.675496 2.820548 0.074803
H -1.748931 3.322873 2.142123
H 0.873651 -1.768013 -2.475390
H 2.212227 -0.558403 -2.178885
H -0.507915 -2.633598 -0.432501
H 0.217636 2.261805 1.537595
H 2.398767 -2.175720 -1.608421
H 1.026207 -3.083256 0.401504
H -0.189882 -2.024382 1.191323
H 0.642838 0.940157 -1.129139
H 1.527275 -0.239285 1.574316
H -1.975753 1.069645 -1.324981