15
H6 C7 O2
C 1.051107 -1.513654 0.369017
C -0.377276 0.584108 0.458041
C -0.406028 2.031751 0.992800
C 0.563246 -1.655344 -1.084458
O -1.454107 1.167699 1.235620
C -0.790112 0.343654 -0.926264
C -0.303371 -0.716604 -1.670314
C 0.517834 -0.350124 1.068175
O 1.804345 -2.397888 0.882213
H 0.805713 -0.208241 2.091471
H -0.599975 -0.876595 -2.623504
H 0.278282 2.263164 1.863748
H -0.653754 2.817565 0.309149
H -1.434025 1.013844 -1.394668
H 0.998121 -2.503323 -1.571046