17
H8 C5 N2 O2
O -0.674290 2.315624 0.894686
N -1.472628 -0.993517 0.056103
C -0.440177 -0.104266 -0.478792
C 0.374989 1.666695 1.130468
C -0.511940 -1.562081 -0.857206
O -0.452506 -2.572548 -2.994878
C -1.013288 -1.980504 -2.231749
N 1.319412 2.168807 1.865948
C 0.721273 0.388089 0.393411
H 2.264624 1.697348 1.932040
H -1.297605 -1.156484 1.029900
H 1.280636 3.060240 2.287162
H -0.781708 0.616076 -1.217687
H -2.133706 -1.400675 -2.399094
H 1.666362 0.461620 -0.138999
H 0.872400 -0.385119 1.170941
H 0.278145 -2.219293 -0.442278