17
H8 C7 O2
C 1.040890 1.566791 -0.643753
C 0.115664 0.408983 -0.343750
O 1.463993 -1.688618 0.251393
C -1.176540 0.340536 0.458340
C 0.259911 -0.879054 0.364732
C -0.389102 -0.420149 1.675041
C -1.217571 -1.145984 0.353223
C 0.416424 0.813883 -1.760696
O -1.376301 -1.434721 1.741173
H -1.801092 -1.807949 -0.378891
H 2.148809 1.405769 -0.500668
H 0.964216 0.280580 -2.444928
H -0.503106 1.388356 -2.312498
H 0.662012 2.590925 -0.285322
H -2.037536 1.005373 0.589245
H 0.026717 0.077613 2.563227
H 1.402627 -2.502342 0.674145