16
H8 C6 O2
C -1.244771 2.859258 0.000289
O 0.864637 -3.136703 1.681460
C 0.290654 -0.553065 -0.587705
C 1.019440 -2.949503 0.301059
C 0.646904 -1.679590 -0.292657
C -0.330727 1.686180 0.140677
O -1.703845 1.700614 0.681336
C -0.236677 0.789231 -1.019964
H -1.794274 3.053629 -0.920430
H -1.104375 0.697110 -1.604725
H 0.468002 1.741552 0.886113
H 1.078619 -2.316449 2.087242
H 0.633398 1.214220 -1.700461
H -1.079225 3.757850 0.580422
H 2.089380 -3.108466 -0.006103
H 0.402870 -3.755858 -0.226540