19
H10 C6 O3
C 2.156309 -0.418467 -0.322603
O -2.057528 0.157635 -3.107909
C -0.355280 -0.532699 1.351472
C -1.288852 0.520032 -2.271732
O 0.956445 0.333106 -0.532423
C -1.354934 0.305817 -0.800098
C -0.215015 -0.462698 -0.194408
O -1.351483 0.190010 1.996148
C -0.064904 0.665745 2.214284
H -2.307957 -0.220201 -0.569643
H -0.125532 -1.476205 -0.624154
H 2.396415 -0.667813 0.671117
H -0.206228 -1.544516 1.787406
H -1.523964 1.293281 -0.293703
H -0.316969 0.975313 -2.609891
H 2.983611 0.190555 -0.759819
H 0.182372 1.548854 1.732132
H 2.174903 -1.365055 -0.911211
H 0.318600 0.507334 3.245041