21
H12 C7 O2
C -0.802719 -0.127219 -0.248136
C 0.433110 2.073085 -0.012142
C -0.094479 -0.948314 -1.230116
O 1.714424 1.588357 -0.344124
C 0.033441 -2.480515 -0.902095
C -0.891601 1.416811 -0.353051
C -0.175269 0.061648 1.352741
O 1.139915 -0.462343 1.412902
C -0.393131 1.594656 1.081570
H -0.997524 -2.822691 -0.772963
H 1.937644 0.802671 0.171904
H 0.402002 3.140511 -0.266072
H 0.953077 -0.588653 -1.416863
H 0.488970 -2.980873 -1.720722
H 0.560337 -2.620601 0.044871
H -0.603317 -0.814636 -2.130955
H 1.401560 -0.206712 2.326939
H -1.654365 1.904167 -0.877357
H -0.800462 2.337480 1.846231
H -0.853702 -0.286992 2.071846
H -1.797917 -0.579834 -0.034419