16
H7 C5 N1 O3
O 1.776490 0.063625 0.524865
C 0.713333 -0.801426 -0.030815
C -0.692087 1.342656 -0.716689
O -1.100215 -0.256629 1.647918
C 2.541386 -0.931069 0.126936
O -2.054002 1.664578 -0.431606
C -0.695634 -0.923504 0.432493
C -0.474041 -0.127380 -0.788961
N 1.607550 -1.750877 -0.352788
H -0.498634 1.849708 -1.658034
H -1.167456 -1.895638 0.406095
H -0.028056 1.778606 0.051014
H 3.615202 -1.038069 0.272226
H -2.291255 1.216436 0.307396
H -0.776850 -0.574742 -1.754925
H -0.475715 0.383744 1.964894