21
H12 C7 N2
C 2.851917 -2.046846 1.163512
C 0.150733 -0.653277 0.316415
C -1.323923 1.355125 0.381775
C -2.411877 2.194282 -0.331717
C 2.236585 -1.208769 0.034269
N 1.571231 0.014710 0.448411
C 0.908686 -1.759669 -0.522809
C -0.889398 0.154838 -0.439188
N 3.283494 -2.646833 2.070424
H -2.763044 3.097304 0.329146
H 0.621572 -2.825505 -0.299581
H 0.830019 -1.620677 -1.635079
H 1.720287 0.758651 -0.217413
H -3.283656 1.596602 -0.487348
H 3.042268 -1.074027 -0.658400
H -2.016352 2.603436 -1.230000
H -0.461917 2.004279 0.577200
H -1.674540 1.036578 1.374502
H -0.124580 -0.971641 1.231264
H -1.761745 -0.490230 -0.675678
H -0.505806 0.481660 -1.429699