18
H9 C5 N1 O3
C -1.428458 0.438000 0.058771
C 1.681237 0.280270 0.251318
O 1.103328 1.175033 -1.771502
C 0.627354 -1.585381 -0.405192
C 0.855594 1.380169 -0.546722
O 1.210541 -0.755755 0.693092
O -0.488888 -1.954763 0.319399
C -1.275314 -0.864890 0.856455
N -0.468124 1.386931 -0.001993
H -1.620050 0.093491 -1.052380
H 1.481489 2.124079 0.045505
H -0.741259 -0.581672 1.785809
H -2.353575 0.887956 0.350140
H 2.686102 0.448588 0.440860
H 0.447417 -1.075461 -1.266279
H 1.273705 -2.373636 -0.682564
H -0.795062 2.313832 -0.218374
H -2.196017 -1.336844 1.143697