18
H9 C7 N1 O1
C 0.453960 0.435984 1.243906
C -2.908155 -0.012048 -0.474576
C -1.519258 -0.101064 -0.465629
N -4.068369 0.101773 -0.416599
C 1.610947 0.736411 0.388631
O 0.567269 1.771477 0.571422
C 2.006032 0.316833 -0.953149
C -0.820645 -1.353307 -0.095878
C -0.816947 -0.301221 0.843454
H 2.500389 -0.629759 -0.960619
H 0.587986 0.522694 2.362471
H 2.628536 1.050436 -1.402858
H -1.459010 -2.279182 0.058722
H 1.103723 0.252507 -1.627452
H -1.461344 -0.491591 1.738293
H 0.068110 -1.602846 -0.742136
H -1.010947 0.572730 -1.061888
H 2.537750 1.010203 0.993889