18
H10 C5 N2 O1
C -1.964077 -1.479721 0.621751
C -0.767943 -0.703028 0.002812
N -0.317778 -0.660587 -1.213005
C -0.928098 -1.481887 -2.193137
O -0.326276 0.216727 0.924865
N 1.183112 1.906380 1.449865
C 2.339035 2.597187 1.239007
C 0.804387 0.969966 0.757155
H -1.304006 -0.909074 -2.947007
H -1.628015 -1.848274 1.615120
H -0.056325 -2.099867 -2.613061
H -1.683559 -2.227830 -1.894906
H -2.758051 -0.880677 0.845537
H 3.079840 2.088549 0.544261
H 1.357143 0.532165 -0.121129
H -2.187040 -2.354554 0.004280
H 2.173647 3.569957 0.806452
H 2.983953 2.764551 2.171130