19
H10 C8 O1
C 0.796685 -2.068671 -0.439693
C -2.552605 0.584178 -0.171202
C -0.165088 -0.059099 -0.464707
C 1.344020 1.338522 0.899821
O -0.332916 -1.324282 -0.714866
C -1.197514 0.893869 -0.844099
C 1.697574 -1.151573 0.386852
C 0.956635 0.081483 0.298595
C 1.831859 2.306690 1.421213
H 1.374463 -2.292624 -1.386293
H 1.710824 -1.540195 1.485842
H -2.912743 -0.444761 -0.501789
H 2.738153 -1.091707 0.089628
H -1.288269 0.828233 -1.891095
H 2.192529 3.212427 1.842565
H -2.540716 0.617052 0.953120
H -3.272906 1.270198 -0.534188
H 0.516047 -3.052068 0.047360
H -0.896006 1.892355 -0.477079