15
H6 C6 O3
O 1.230116 1.180028 -0.644487
C -1.263258 -2.913258 -0.214287
C 0.629632 2.046050 0.282860
C 0.777375 -1.293789 -0.509383
C -0.400065 0.911688 0.679889
O 1.415814 -0.897933 0.650159
C 0.748415 0.090785 -0.015599
O -1.629535 0.940148 -0.058029
C -0.297992 -2.195153 -0.348142
H 1.329395 2.298250 1.035450
H -1.369534 1.307765 -1.001115
H -0.642668 0.772776 1.651925
H 1.437540 -1.458921 -1.349342
H -2.027651 -3.668768 -0.084827
H 0.062406 2.880329 -0.075060