21
H12 C8 O1
C -0.646782 1.567949 -0.131178
C 0.434110 1.764631 -1.203345
C -0.176999 -1.967292 0.824852
C -0.999436 0.104061 -0.063139
C 0.101717 -0.526982 -1.076900
C 0.867780 -1.563730 -0.253309
O 0.912046 0.593305 -1.685894
C -0.844577 -0.680733 1.231539
C 0.815492 1.973680 0.243975
H 0.401777 2.586613 -1.915921
H -0.251967 -0.087847 1.921107
H 1.306126 -2.291905 -0.786045
H -1.978531 -0.078928 -0.530651
H -1.471685 2.289809 -0.056729
H -1.780568 -0.866704 1.713952
H 0.324957 -2.421944 1.709016
H 1.680819 -1.020714 0.270345
H -0.305128 -1.032515 -1.948166
H 1.424770 1.314135 0.780039
H -0.792772 -2.695617 0.351943
H 0.978857 3.040725 0.604534