19
H11 C6 N1 O1
C -0.909809 -0.638451 -0.677456
C 0.324164 -0.298815 -0.724320
C -1.056493 0.066740 0.548460
C -1.261828 -1.062654 2.509943
C 1.334521 0.598270 -0.831947
O -0.366711 -0.800652 1.505517
C 1.363796 1.672830 -1.839531
N 1.469579 -0.817690 -1.421695
H -2.455124 0.136112 -0.201403
H 0.978442 1.265097 -2.844680
H 1.799840 0.743218 0.153083
H 0.930555 2.574605 -1.603949
H -1.348594 -1.539559 -0.945949
H -0.691019 -1.746507 3.264323
H -2.088293 -1.660120 2.227781
H 2.487659 1.868084 -2.133076
H -1.622276 -0.177335 3.021571
H 2.280568 -1.176140 -0.966975
H -1.168968 0.992960 0.960310