17
H8 C5 N2 O2
O -0.822982 1.282271 -0.684646
C 0.479091 -1.486971 -0.129048
C 1.283748 0.670746 0.192350
C -0.619969 -0.677186 0.532513
N 1.626909 -0.525136 -0.197735
C -2.055526 0.545124 -0.597042
C -0.152771 0.815503 0.489555
O -1.829926 -0.790555 -0.329703
N 2.058486 1.728612 0.282955
H 0.776874 -2.348701 0.428960
H -2.420667 0.566281 -1.610019
H -0.531699 1.391933 1.399920
H -2.719261 1.006682 0.156903
H -0.753048 -1.029885 1.629741
H 2.501092 -0.883670 -0.482635
H 3.008540 1.492157 0.053454
H 0.171122 -1.757190 -1.135511