18
H9 C6 N1 O2
C -1.026741 -1.890148 -0.166290
C 1.674769 2.170408 0.124909
C 0.205913 -2.587729 -0.783246
C -0.761961 2.114876 0.713696
N 0.323355 0.132056 0.023184
C -0.789448 -0.435746 0.159648
O -1.938727 1.445123 0.885979
O -1.857727 0.089269 0.584827
C 0.390446 1.485162 0.301429
H 1.524590 3.202577 0.376360
H 2.033263 2.129254 -0.927085
H 1.123582 -2.503567 -0.185689
H -1.851967 -1.968909 -0.814771
H 0.555241 -2.137724 -1.788896
H -0.809424 3.144432 0.981035
H -1.245770 -2.398148 0.744394
H 0.022098 -3.653971 -0.976320
H 2.428454 1.662817 0.746816