25
H16 C9
C -0.452575 -0.042677 0.293471
C 1.660842 -0.737132 -1.075804
C -2.264129 -0.975385 1.092082
C -0.820838 -0.744415 1.661323
C 1.003229 0.111256 -0.010789
C -1.698293 -0.714492 -0.334683
C -0.119272 1.544284 -1.875524
C 0.082083 1.270215 -0.374132
C 1.909045 0.533267 1.188172
H -0.374057 0.658976 -2.410331
H 2.219729 -0.427906 1.742921
H -0.668118 -0.198677 2.597538
H -2.696170 -2.003306 1.206364
H 2.718473 1.022492 0.844236
H -2.887718 -0.243546 1.505250
H 1.351326 1.131874 1.924560
H 2.459187 -0.299726 -1.511938
H -0.305132 -1.713754 1.763369
H 0.911588 -1.104994 -1.805580
H -1.430368 -1.625145 -0.951654
H 0.682875 2.069063 -2.296516
H 0.115394 2.102021 0.298143
H -2.361549 -0.110439 -0.951922
H 1.972491 -1.670686 -0.554785
H -1.008055 2.168856 -1.963768