18
H9 C6 N1 O2
O 2.112991 -2.262074 1.152147
C -0.851389 -0.636343 0.244378
C 1.392841 -1.040701 1.086419
C -0.562647 2.140356 0.372313
C 0.475401 -0.046326 -1.066046
N 0.505252 -1.177477 -0.087537
C -0.410960 0.820224 -0.108148
O -1.988088 0.103134 -2.100250
C -1.012349 -0.068616 -1.188687
H -2.044228 -0.727839 -2.594111
H -1.569703 2.425324 0.751398
H -0.359673 2.894630 -0.396785
H 0.806181 -0.989384 2.033178
H 2.074453 -0.188163 1.091817
H -1.634826 -0.990135 0.835979
H 1.258822 0.174448 -1.691388
H 0.097428 2.361431 1.196037
H 1.710474 -2.792493 0.469299