22
H13 C7 N1 O1
C -0.930188 -0.766492 0.835636
O 1.602156 1.310913 -1.682644
C -2.491119 -0.546872 1.040329
C 0.090456 0.243569 1.204134
C 1.804835 0.603615 -0.638063
C -1.136285 0.040066 -1.634815
C -0.405324 -0.759869 -0.633955
C 3.197887 0.655649 -0.059305
N 0.791164 -0.139092 -0.099752
H 3.847934 -0.042508 -0.518538
H 3.147444 0.428330 1.019264
H -3.098836 -1.345369 0.703881
H -2.681712 -0.453139 2.181516
H -0.528224 0.248151 -2.494090
H -1.986224 -0.483798 -1.998554
H 0.674314 0.150151 2.093737
H -0.767708 -1.731369 1.326481
H -0.130181 -1.829238 -1.011908
H -0.332024 1.329654 1.141970
H -1.465907 1.007489 -1.199316
H -2.782620 0.420965 0.631775
H 3.580155 1.659203 -0.207774