23
H14 C7 O2
C -0.806188 -0.632010 0.897473
C 0.361726 -0.351003 -1.233310
C 0.144929 -1.839097 0.766298
C -1.266912 1.492835 -0.473479
O 2.090143 0.486633 0.749094
C 0.935170 -1.688432 -0.580714
C -0.204972 0.442983 -0.055875
C 0.910348 1.230750 0.702399
O -2.308172 0.765388 -1.072916
H -0.818795 2.138077 -1.218833
H -2.951980 1.417530 -1.275306
H -1.591291 2.068903 0.361188
H 0.882218 -1.838406 1.573578
H -0.389626 -2.827928 0.842850
H -0.399120 -0.669068 -1.846848
H 0.743879 -2.519951 -1.286090
H 2.026617 -1.613677 -0.428106
H 2.789583 1.144914 1.110777
H -1.784000 -0.937912 0.499192
H -0.960021 -0.317790 1.888671
H 0.988856 2.199463 0.144108
H 0.567605 1.579806 1.720080
H 1.040025 0.268019 -1.784274