18
H10 C6 O2
O 1.296191 -1.829785 -0.399777
C 0.677010 0.434195 0.685449
C 1.280461 -0.399100 -0.465564
O -0.518226 2.471785 -0.534170
C -0.252523 1.114472 -0.279902
C 0.274862 0.173934 -1.421062
C -0.816991 0.280434 0.789535
C -1.547689 -1.018741 0.840609
H 2.069205 -2.107412 0.131284
H -1.224484 0.982630 1.513608
H -2.479107 -0.939247 0.304599
H 0.214349 2.941519 -0.292023
H 1.245762 0.844361 1.574122
H -0.495099 -0.522758 -1.805585
H -1.823590 -1.288178 1.877615
H 0.750823 0.747095 -2.232146
H 2.324822 -0.033390 -0.680930
H -0.975761 -1.851807 0.394360