17
H8 C7 O2
O -0.973550 -0.182526 1.999647
C 0.708807 -0.691209 -0.994954
C -0.476151 0.998230 0.063616
C 0.358029 -1.174769 0.341846
C -1.216562 -1.242900 0.815034
C -0.200988 -0.035225 0.953678
C 0.159117 0.575683 -1.258687
C 1.556092 0.756705 -0.764401
O -1.122525 2.006537 0.370968
H -2.119682 -1.003725 0.246052
H -0.105724 1.098075 -2.178888
H 1.096703 -1.802592 0.827124
H 1.703256 1.965202 -0.502356
H -1.408390 1.844006 1.403862
H -1.409333 -2.164281 1.441327
H 2.562752 0.511189 -0.935526
H 0.888150 -1.458405 -1.828359