19
H10 C9
C 2.921808 -1.462274 1.803191
C -3.588516 2.659668 -2.341590
C 0.768405 -0.286020 0.969933
C 3.300521 -2.875166 1.752583
C 1.787146 -0.792393 1.376243
C -2.614839 1.731398 -1.840418
C -1.777873 1.004047 -1.454159
C -0.729001 0.211451 -0.992708
C -0.428967 0.381388 0.524809
H -4.544113 2.091344 -2.650227
H -3.940797 3.349030 -1.569018
H -3.277078 3.274314 -3.215556
H -0.322438 1.521223 0.650157
H -1.290534 0.062563 1.105623
H 3.700967 -0.798370 2.259812
H -0.241212 -0.448294 -1.600326
H 3.296210 -3.189338 2.742774
H 2.640141 -3.494863 1.114580
H 4.340173 -2.939699 1.364298