17
H8 C7 O2
O -0.622564 0.953806 1.077736
C -0.944423 -0.439466 0.704366
C -1.771408 -0.161267 -0.594573
C 0.387719 -1.146292 0.398820
C 0.645295 1.110412 0.416649
C 1.373549 -0.163846 1.034454
C 0.465393 0.450271 -1.132897
C -1.016672 0.397615 -1.487799
O 0.741455 -0.917776 -0.957069
H 1.014488 2.104280 0.492026
H 1.133298 0.894156 -1.873971
H -1.262196 0.724803 -2.492392
H -2.803386 -0.447746 -0.694550
H -1.560334 -0.814895 1.547478
H 2.385918 -0.278312 0.671303
H 0.496758 -2.227764 0.740555
H 1.337092 -0.037977 2.149855