21
H12 C8 O1
O 1.093176 -1.022590 0.655266
C 1.076033 0.275488 1.360883
C 0.954261 0.774875 -1.076335
C -1.405593 -0.513882 -1.061751
C -0.446292 0.533109 -0.721897
C -0.071372 -1.883886 0.646015
C 1.023760 1.445728 0.332003
C -0.889285 -1.818986 -0.570480
C -0.521085 1.744978 0.127060
H 0.235347 0.279229 2.116765
H 1.967972 0.254754 1.920073
H 1.556121 -0.015042 -1.365284
H -2.474106 -0.411025 -0.553871
H 0.317749 -2.980007 0.615281
H -0.665536 2.663731 -0.421170
H -1.401994 -0.549874 -2.228432
H -1.159341 -2.662071 -1.093121
H -0.679869 -1.769797 1.470645
H -1.209045 1.826810 1.021138
H 1.661342 2.213835 0.625108
H 1.037739 1.614634 -1.797870