15
H7 C4 N1 O3
N 0.806289 1.827043 0.371864
C 2.186565 -0.737639 0.437401
C -1.023910 0.451805 -0.566436
O 2.865682 -1.783359 0.222032
C 0.409690 0.723568 -0.092901
O 1.068472 -0.528206 -0.281711
C -1.770896 -0.438845 0.410036
O -0.970296 -0.086643 -1.878603
H -2.810100 -0.512754 0.085567
H 1.801760 1.699613 0.618579
H 2.428436 -0.004124 1.178829
H -0.345214 -0.819844 -1.817676
H -1.464417 1.461454 -0.660483
H -1.324235 -1.383229 0.567961
H -1.857825 0.131158 1.405541