17
H10 C6 O1
C -1.581091 0.105974 1.068220
C -1.710672 1.164244 0.102597
C 1.785614 -0.572318 -1.311504
C -1.291902 -0.208782 -0.365961
C -0.239833 -0.521530 0.743040
C 1.045054 0.278432 0.793137
O 1.567969 0.524018 -0.395710
H 2.114573 -1.499190 -0.779555
H -0.106664 -1.540435 0.973846
H 1.676879 -0.259888 1.408022
H 0.845108 1.215388 1.306464
H 2.516282 -0.279967 -2.024306
H -0.953291 1.958520 -0.043151
H -2.310079 -0.209428 1.725855
H 0.902446 -0.869612 -1.895913
H -2.635657 1.507305 -0.265616
H -1.624732 -0.792710 -1.039478