19
H11 C7 N1
C -2.261292 -0.712964 -0.136479
C -1.572040 -1.504329 0.619259
C -0.143608 0.015147 -0.400765
C 0.979612 0.909880 -0.910628
C 0.898719 2.351683 -0.437481
C -0.135299 -1.096691 0.525814
C 1.041017 -1.704493 1.186660
N -1.430158 0.179946 -0.775042
H -1.698466 0.916595 -1.406831
H 1.925576 -1.157858 1.041561
H -0.064058 2.746130 -0.778496
H 0.887201 2.418200 0.656442
H -3.326953 -0.755251 -0.325264
H 1.732835 2.941375 -0.782978
H 1.893742 0.464812 -0.515652
H 1.231530 -2.729345 0.876274
H 0.844510 -1.756546 2.279892
H 1.009348 0.817701 -1.942702
H -1.812217 -2.344008 1.226422