18
H9 C7 N1 O1
C -1.049089 1.002730 -0.091954
C 1.001532 0.570623 -1.165874
O 0.007397 1.567745 -0.919630
C -0.628046 0.253758 1.196133
C 0.822536 0.022452 1.341894
C 0.530570 -1.271544 0.707061
C -1.526206 -0.350780 -0.699468
C 1.438145 -0.311998 -0.111233
N -1.002629 -1.066373 0.555731
H -1.233942 0.436884 2.060887
H 0.669730 0.011882 -2.111482
H 1.413759 0.245977 2.109679
H 1.890398 1.187611 -1.570624
H -1.110679 -0.724084 -1.603848
H 0.784817 -2.321620 0.974389
H -1.840251 1.776358 0.030588
H 2.411706 -0.552598 0.010652
H -2.579756 -0.477045 -0.712906