21
H12 C8 O1
C -1.548236 1.068642 0.472354
C 0.617535 -0.126952 -0.311837
C -1.947586 -0.322231 -0.008077
C -0.352044 -0.460702 2.011842
C -0.632604 -0.071148 0.604853
C 1.359105 -1.424016 -0.361209
C 1.446607 1.116443 -0.441874
C 0.639192 0.630463 -1.640854
O 0.675493 -0.562987 2.529373
H -0.296146 1.145540 -1.894862
H -2.747991 -0.860168 0.510409
H -1.968350 -0.556797 -1.079264
H -1.332293 -0.677149 2.539472
H 1.122533 1.931327 0.182356
H 2.478912 1.029319 -0.539135
H 1.735820 -1.732476 0.605237
H 1.138955 0.204682 -2.483865
H -1.414755 1.861583 -0.310109
H 0.771708 -2.250661 -0.758727
H 2.298011 -1.327187 -0.992507
H -2.043896 1.384464 1.366428