16
H7 C5 N1 O3
N -0.727188 -1.060303 -0.503530
C 0.929230 0.366793 -0.427496
O 1.452098 0.875295 0.772073
C -1.370447 -0.885994 0.818993
O 1.613398 0.937233 -1.486466
C 0.771193 -1.218568 -0.492398
C -0.611916 0.411462 -0.588166
O -1.658374 -1.713187 1.634304
C -1.481712 0.648100 0.573369
H 1.135969 -1.611001 -1.432861
H -0.947991 0.861310 -1.598189
H 1.121438 -1.752121 0.380689
H -2.498207 0.981925 0.374074
H 2.357169 1.374789 -1.044104
H 1.073721 0.535180 1.547770
H -1.158369 1.249092 1.471946