18
H9 C7 N1 O1
O -1.582160 -3.165993 1.776951
C 0.342133 1.006816 -0.885428
N -1.336262 -1.896858 2.320291
C 1.206135 1.470300 -1.514816
C -0.912905 -1.092314 1.426466
C -0.913028 -1.135637 -0.060146
C 2.312613 2.016163 -2.340346
C -0.727149 0.423542 -0.024567
C -0.457821 0.355215 1.563225
H -1.662806 0.945852 -0.195741
H -1.805086 -1.454371 -0.650587
H -1.788155 -3.647862 2.631774
H 0.629464 0.402612 1.834503
H 3.120801 2.368820 -1.712044
H -1.024000 1.010002 2.199397
H 2.744589 1.229916 -2.961450
H 1.942270 2.818432 -2.940807
H -0.088626 -1.654654 -0.466702