22
H13 C7 N1 O1
C -0.020056 0.195067 -1.367549
C 1.888820 1.006458 1.158928
C -1.176580 -1.189063 0.490002
O -2.408872 -0.436931 0.637910
C 1.310839 -1.229653 0.416416
C 0.483268 0.508638 1.219682
C 0.025145 -0.394896 0.069045
C -1.254968 1.062293 -1.737729
N 1.647580 -0.360844 1.604505
H -0.197875 0.940964 1.954982
H 2.160502 -1.214931 -0.307949
H 1.126145 -2.285104 0.747682
H -2.124142 0.428724 -1.763735
H -1.346759 1.837940 -1.000111
H 2.356665 1.102262 0.105900
H -1.015905 -1.741274 1.404004
H 0.070339 -0.632608 -2.039592
H 0.907753 0.779189 -1.531631
H -2.118289 0.400314 1.117344
H 2.223852 1.671808 1.876790
H -1.478158 -1.943314 -0.319749
H -1.059312 1.494943 -2.735111