21
H12 C8 O1
C -1.497456 1.001826 -1.029479
C 1.997247 -0.717147 1.243870
C -0.078370 -1.494924 -0.297664
C 0.515616 -0.691719 0.953345
C -0.287145 0.510485 0.346859
C -1.172833 -0.391831 -0.330384
C -1.327505 1.543221 0.495236
C 0.013906 1.156286 -1.024608
O 0.763905 -1.684702 -1.487732
H -1.040160 2.582695 0.590281
H 1.108323 -0.917941 -1.751063
H -2.097255 -0.769440 0.195165
H -0.464124 -2.508889 -0.095088
H 2.327024 -1.695233 1.551111
H -2.269609 1.364890 -1.702384
H 0.431950 2.131989 -1.003102
H -2.195820 1.319523 1.141115
H 2.575106 -0.428974 0.314646
H 2.190869 0.062857 1.992275
H 0.510511 0.650263 -1.913661
H -0.004185 -1.023233 1.811281