22
H13 C8 N1
C -2.034260 -0.684415 2.307884
C -1.603667 0.199482 -1.139711
C -0.704932 -0.008876 0.080420
C -1.451121 -0.422220 1.289881
C 0.383427 2.227765 0.138872
C 1.219440 -0.703397 -1.492182
C 0.072152 1.043548 0.402300
C 1.396164 -1.211969 0.856141
N 0.498038 -0.805953 -0.197321
H 2.251357 -0.569011 0.964983
H -2.589043 -0.979568 3.170887
H 1.099896 2.487397 -0.578726
H 1.805374 -2.202692 0.649794
H 1.926843 0.126931 -1.546206
H -1.128352 0.736825 -1.926592
H 0.483490 -0.630494 -2.277436
H 0.914499 -1.271197 1.865898
H -2.472444 0.649815 -0.837252
H -1.837727 -0.826700 -1.502471
H -0.525653 2.832160 0.178235
H 1.770070 -1.673433 -1.647957
H 0.526437 1.685995 1.240544