19
H10 C7 O2
O 1.505827 1.618302 -0.581921
C 0.417588 0.830149 -1.027323
C -0.983558 1.500096 -0.973526
C -0.030521 -0.228457 -0.008966
C 0.655038 -1.884652 1.307215
C -1.491406 0.225235 -0.232943
C 0.578046 -0.275036 1.413555
C 0.296615 -1.686208 -0.138209
O 0.279416 -2.461853 -1.076828
H -0.982346 2.374215 -0.336353
H -0.113774 -2.383497 1.899195
H -0.014483 0.144290 2.205828
H -2.093543 0.334761 0.667713
H 0.632393 0.417763 -2.010881
H 1.571419 0.193054 1.407209
H 1.594172 -2.317381 1.543520
H 1.725807 2.306475 -1.216074
H -2.009439 -0.473635 -0.919219
H -1.537249 1.766364 -1.921984