25
H16 C9
C 0.840799 2.310005 1.321856
C -2.063218 -1.451365 -1.694191
C -0.796094 0.559524 -0.604775
C -0.765500 -0.571325 -1.702204
C 0.432498 -1.408416 -1.834172
C 1.568654 0.210151 2.453867
C 1.957859 -0.242150 3.485979
C -0.208845 0.022959 0.735305
C 1.045701 0.769982 1.201168
H 0.023074 2.494860 2.075740
H 2.293030 -0.489661 4.512481
H -2.924392 -0.789557 -1.649093
H 1.810053 0.607956 0.455131
H -2.106686 -2.056758 -2.580136
H 1.365530 -0.801327 -1.717469
H 0.587167 2.744553 0.354590
H -0.021881 -1.055074 0.781844
H -0.854717 0.066716 -2.714055
H -0.143452 1.315876 -0.999880
H 1.717559 2.793518 1.686356
H -1.785711 0.956301 -0.509985
H -2.066715 -2.065886 -0.796463
H -0.939486 0.160793 1.552725
H 0.516082 -1.884227 -2.759382
H 0.518700 -2.197439 -1.055238