18
H9 C6 N1 O2
C -0.500001 0.257339 -0.077019
C 1.767046 0.071697 0.617172
C 0.547358 0.966739 0.592229
C -1.469967 1.037360 -0.931346
O -2.540037 0.174701 -1.486915
N -0.344001 0.185301 1.410637
C -0.213461 -1.263192 -0.078609
C 0.705003 -0.928746 1.112648
O 2.485906 -0.121960 -0.603773
H -0.942024 1.417216 -1.826555
H -1.063877 -1.865236 0.264980
H 0.588810 2.029344 0.730318
H 0.956997 -1.624924 1.920284
H 0.245541 -1.719945 -0.933730
H 2.486943 0.358558 1.357544
H -1.771372 1.912390 -0.344313
H -3.080232 -0.024881 -0.708097
H 2.141331 -0.861745 -1.015461