19
H10 C7 O2
C 1.118786 1.456177 -0.508062
C -0.267604 1.499177 0.194139
O -1.042549 -0.340424 2.333932
C -1.074763 0.257873 -0.124029
C -0.060540 -0.572700 -0.920792
O -0.548142 2.295070 0.921393
C -1.222932 -0.834408 0.940414
C -0.096486 -1.670176 0.288076
C 1.280438 0.050304 -1.018035
H 1.888227 1.842856 0.150742
H -2.087835 0.419663 -0.677861
H -0.429931 -2.627692 0.008597
H 1.648031 0.021145 -2.060226
H 0.755714 -1.739652 0.986916
H -2.129596 -1.410406 1.017147
H 1.172195 2.166616 -1.385071
H -0.501623 -0.594128 -1.914134
H 2.044616 -0.475854 -0.488476
H -0.446060 0.256562 2.255331