15
H7 C5 N1 O2
C -0.348125 -0.712414 2.079661
C 1.492054 0.378429 -0.354431
C -0.236438 1.003572 -1.470262
C -0.013734 -0.029568 -0.406554
O -0.819598 -0.300612 3.167812
C -0.938910 -0.421025 0.750296
O 1.167032 1.450408 -1.314602
N -0.482448 -1.372941 -0.316009
H 2.129109 -0.329388 -0.775992
H 1.860814 0.781888 0.631355
H -0.931263 1.830626 -1.322543
H -1.230464 -1.576186 -0.945597
H 0.623863 -1.352040 2.048959
H -0.359210 0.659016 -2.511513
H -1.912678 -0.009762 0.739397