18
H9 C7 N1 O1
C 0.953080 -0.073245 1.528494
C -0.750296 -0.075225 0.010694
C 0.617495 0.292524 0.138014
C 0.078299 -0.067297 -2.179044
C 1.241554 0.197491 -1.184867
O -1.362988 -0.474438 1.047162
C -0.359583 -0.695041 2.100824
C -1.224263 0.066749 -1.373683
N 0.763149 1.280938 1.218410
H 1.835737 -0.374524 1.963944
H 2.187953 0.245586 -1.445146
H 0.272155 1.725380 1.619898
H -1.720080 1.016013 -1.458936
H 0.050051 0.596791 -3.055472
H 0.209256 -1.038995 -2.626445
H -0.197342 -1.758962 2.303485
H -0.625259 -0.187265 3.032306
H -1.968945 -0.676441 -1.639655