20
H11 C7 N1 O1
C 1.973614 -0.498787 -2.032862
C -0.704297 -1.354485 0.253500
C -2.474454 0.064343 1.435670
C 0.542015 1.009520 -0.569217
C 1.264648 -0.398288 -0.599919
C -1.120931 -0.143419 0.777004
N 0.434090 -1.487876 -0.457813
C -0.133588 0.940447 0.712896
O -0.015780 1.739739 1.733671
H 1.247769 1.825556 -0.612852
H -2.470376 1.002272 1.952900
H 2.059403 -0.328799 0.150149
H 1.246035 -0.420652 -2.814678
H -1.334941 -2.198819 0.415119
H 0.466855 1.219430 2.475048
H -0.178269 1.114323 -1.408840
H 2.714099 0.232099 -2.140950
H -3.214968 -0.010163 0.661678
H 2.352004 -1.531358 -2.048785
H -2.652941 -0.775077 2.118272