16
H7 C6 N1 O2
C -2.020295 -0.173484 -0.336403
C 1.566489 1.055360 -0.698152
O 0.952197 -2.029561 0.586666
C 0.168948 -1.145117 0.646533
N -0.388754 -0.836232 1.905650
C -0.520341 -0.439652 -0.551037
C 2.713198 1.209678 -0.404438
O -2.842932 -0.825529 -0.822495
C 0.164128 0.897026 -1.004288
H 3.784996 1.414190 -0.233705
H -0.018574 0.982821 -2.075248
H -0.701810 0.098068 1.971210
H -0.215333 -1.212203 -1.319626
H -0.350614 1.747514 -0.552131
H -2.254151 0.622610 0.293406
H -0.037150 -1.365475 2.594063