15
H6 C6 N2 O1
C -0.481821 1.661264 1.536654
C 0.864050 -0.243055 0.711584
N 0.244236 -0.688656 -0.630407
O -0.836351 -0.379143 2.388942
C 0.650904 0.630966 -2.825866
C -0.456041 0.160569 1.408916
C -1.029965 -0.765323 0.104301
C 0.437707 -0.006579 -1.790910
N -0.573411 2.826024 1.679984
H -1.290715 -1.805679 0.471373
H -1.900796 -0.346726 -0.348012
H 0.786311 1.101901 -3.748964
H 1.640616 0.630970 0.646309
H 1.369508 -1.051639 1.245733
H 0.575760 -1.724922 -0.849634