19
H10 C7 O2
C 1.559293 -0.945944 -0.470148
C 0.979411 -0.393172 -1.705341
C -1.638196 0.099420 1.561568
C -0.979617 -0.243449 0.125252
O -0.223802 0.477058 -1.174687
C 0.260882 -1.143548 0.454364
C 1.199457 -0.116480 0.636551
C 0.028369 1.492717 -0.425019
O 0.975137 1.115352 0.763284
H -2.422090 0.704117 1.436825
H -1.653680 -0.700551 -0.376922
H 0.634151 -1.117189 -2.349231
H -1.847016 -0.820935 2.074838
H -0.949818 2.080580 -0.069067
H 1.656590 0.238531 -2.142901
H 0.217953 -2.140165 0.889710
H 2.487955 -1.620832 -0.547426
H -0.902666 0.681153 2.155221
H 0.617700 2.353344 -0.836826