17
H8 C6 O3
O 0.780853 1.024495 0.300203
C 0.779916 1.028302 -2.009557
C 0.035896 -1.096599 0.877181
C 0.001859 0.630020 -0.817757
C 1.244668 -0.233664 0.866856
O -1.796134 0.539751 1.615400
C -1.319642 -0.644661 0.892146
C -0.650950 -0.637835 -0.429373
O 0.422770 1.661476 -2.994458
H -0.964593 1.229618 1.412729
H -2.175331 -1.322236 1.033309
H -0.912501 -1.344734 -1.176318
H 1.624320 -0.017017 1.860513
H 2.023418 -0.653600 0.251772
H 1.676571 0.517443 -1.993803
H -0.939915 1.406138 -0.887048
H 0.168795 -2.086899 1.198179