15
H6 C6 O3
O 1.579737 0.593360 0.079949
C -0.226235 -0.298278 -1.081599
C 1.285414 -0.035856 -1.118908
O -1.305630 -0.557686 1.211962
C -0.229971 -0.843428 0.392976
O -0.372476 1.554077 1.386651
C -1.156591 0.704348 1.587134
C -1.166342 0.008083 -1.987171
C 0.721599 0.095333 1.083531
H 1.616244 0.514689 -2.018527
H -2.044664 1.104868 2.145322
H 1.254681 -0.258828 1.850169
H -0.001279 -1.930096 0.424493
H 1.879522 -0.980656 -1.148381
H -1.834039 0.330044 -2.807594