21
H12 C6 O3
C -1.496987 1.014903 -0.674009
C 2.760465 -1.951812 2.186743
O 3.124674 -2.941371 1.420618
C 1.928257 -0.880030 1.185406
O -2.590444 1.016541 -1.412832
C -2.821022 2.382940 -1.764502
C -0.234330 0.292687 -1.013470
C -0.210623 -0.997169 -0.147885
O 1.062773 -1.453941 0.241680
H -1.456172 1.643064 0.165123
H 2.714903 -0.388501 0.812159
H -2.923799 3.058570 -1.011770
H -0.344689 0.155913 -2.099988
H 2.157954 -2.231024 3.122609
H -0.602158 -1.793770 -0.753836
H 3.719801 -1.556027 2.715195
H -1.984904 2.695484 -2.480578
H 1.242045 -0.272264 1.873798
H -3.756176 2.263761 -2.339317
H 0.613955 0.809306 -0.790525
H -0.903515 -0.867261 0.765411