18
H10 C7 O1
C -1.812376 -0.176372 0.433484
C -1.217172 -0.576063 1.535243
C 0.302156 -0.566296 1.535575
C -0.961142 0.544857 -0.463287
C 0.751941 -1.166489 -0.008017
O 0.884618 0.639500 1.032697
C 0.563777 0.249926 -0.321437
C 1.376833 0.916174 -1.444616
H -1.259149 0.346083 -1.506681
H -2.843236 -0.278986 0.281013
H -1.773299 -1.001975 2.314157
H 1.301292 2.045291 -1.296782
H 0.940211 0.735203 -2.404344
H -1.140229 1.677510 -0.381606
H 0.651765 -0.733502 2.530052
H 1.770390 -1.439058 0.091884
H 0.081438 -1.900881 -0.607652
H 2.382167 0.685078 -1.319688