19
H10 C7 O2
C 2.416088 0.335186 0.768544
C -1.518828 -0.466842 -1.896130
C -0.087894 -0.762788 -1.373681
C 0.247084 0.568882 0.996609
C 0.280486 -0.078580 -0.078225
C -1.644575 0.237136 0.221792
O 1.879071 -0.208680 -0.266634
C 1.480531 0.497959 1.903063
O -2.005720 0.526158 -1.081588
H -0.459084 1.120498 1.693050
H -1.962536 -0.654203 0.710119
H -0.002648 -1.816744 -1.340986
H 3.515973 0.353832 0.717958
H -2.232186 -1.342942 -1.807220
H -1.512159 -0.216019 -2.880142
H 0.623298 -0.497502 -2.153444
H 1.243759 -0.113106 2.677466
H -2.036599 1.114088 0.761067
H 1.775947 1.403627 2.428410