17
H8 C6 O3
O -2.041702 -0.970829 -1.202029
C 0.019743 1.377180 -1.091334
C -0.463570 -0.309727 0.411027
C -1.862044 -0.192899 -0.146665
C -0.151553 -1.055004 1.647200
C 1.967663 0.607415 0.036715
O 1.003533 -1.335174 2.115010
C 0.626911 0.216618 -0.434048
O -0.109539 2.331913 -1.592028
H -2.056630 0.926718 -0.327016
H 2.507227 -0.201920 0.485746
H 2.620600 1.012543 -0.729872
H 0.748707 -0.590842 -1.202872
H -2.484117 -0.536548 0.656044
H -1.005816 -1.379417 2.236376
H 1.947766 1.363811 0.871718
H -1.267191 -1.263840 -1.733972