27
H18 C8 O1
C 0.295305 0.356146 0.073705
C -1.452039 -1.641657 0.345068
C -1.038411 -0.272779 -0.391432
C 0.470792 0.199372 1.601161
C 0.267742 1.881407 -0.336626
O -2.471399 -1.091982 -2.122100
C 1.777098 0.690542 2.248494
C -1.257389 -0.477879 -1.926761
C 1.509832 -0.229957 -0.645477
H -0.760190 -2.394092 0.062376
H 1.182426 2.319593 0.031510
H 0.291491 2.006301 -1.431027
H 0.362025 -0.857112 1.809061
H -1.526888 -1.544596 1.468315
H -1.112989 0.480526 -2.391141
H 1.398760 -0.094914 -1.737241
H 2.514584 1.098917 1.543190
H -2.436354 -1.876470 0.036012
H -2.543308 -1.141992 -3.086905
H 1.555218 -1.320937 -0.486043
H -0.612379 2.382250 0.019730
H 2.225394 -0.088514 2.745473
H -0.386961 -1.132595 -2.205130
H 2.435304 0.193695 -0.264293
H -1.849829 0.406073 -0.061366
H 1.502275 1.428091 3.006516
H -0.340124 0.722572 2.094936