19
H10 C6 N2 O1
C 0.964941 -1.931893 0.404082
C 0.174736 -0.593858 -0.172025
C -1.016828 2.316438 1.093717
C 0.563406 0.772001 -0.194665
O -0.898266 2.388751 -1.191616
C 0.627329 -2.537955 -0.941468
N -1.117363 -1.202826 -0.159020
N -0.284606 -1.378717 -1.263890
C -0.744314 1.637005 -0.249630
H 1.153355 1.068665 -1.025378
H -1.797862 3.020996 1.052569
H 2.069030 -1.764245 0.621950
H -1.584083 1.182962 -0.659412
H 1.169008 0.992467 0.726911
H 1.505048 -2.496661 -1.647490
H 0.523270 -2.373274 1.245615
H 0.056255 -3.443392 -0.967199
H -1.311869 1.521676 1.831420
H -0.051212 2.821918 1.495520