16
H7 C6 N1 O2
C 0.484601 1.466636 -0.345112
C 1.428624 -0.768000 -0.573446
C -1.415055 1.675984 0.406039
N -0.425653 -1.509026 -0.498102
C -0.597296 0.558932 0.798433
C 0.208133 -0.004612 -0.224274
O 2.458581 -0.440379 -0.930509
C 0.835904 -2.103410 -0.191420
O -0.218546 2.491651 0.208012
H 1.112825 -2.988684 -0.799778
H 0.948131 -2.435462 0.873104
H -0.732165 0.133305 1.737621
H 1.211239 1.952928 -1.122044
H -2.057853 2.152168 1.183311
H -1.229402 -1.755556 0.110097
H -2.012071 1.573528 -0.631955