15
H6 C6 N1 O1 F1
C -1.717912 0.514239 -0.301606
C 0.518574 0.285875 -1.432015
C -0.279672 -0.590130 1.468841
F -1.233197 1.298901 -2.318159
C -0.815269 0.695633 -1.269236
O 2.624675 -0.276578 -0.636166
C 0.923864 -0.335800 1.000712
N -1.437248 -0.174817 0.868558
C 1.281103 -0.200392 -0.362961
H 3.117395 -0.581008 0.169912
H 0.949898 0.286002 -2.387137
H -2.693721 0.960854 -0.392601
H 1.633282 -0.470099 1.780145
H -0.508201 -1.016662 2.451303
H -2.363582 -0.396035 1.360425