15
H7 C4 N3 O1
C -0.203535 0.355819 1.171057
C 0.690548 -0.863539 0.942222
N 0.621651 -1.240753 -0.447103
C -0.337365 0.750898 -0.284583
C 0.195357 -0.220973 -1.210670
N 0.239396 -0.056922 -2.430016
N -0.797835 1.966415 -0.760858
O 0.223028 -1.940225 1.792836
H 0.235563 1.106261 1.776215
H 1.719814 -0.733487 1.217021
H -1.149233 0.095149 1.551904
H 0.457005 -2.786338 1.422251
H 0.573318 -0.971669 -2.848260
H -1.487641 2.447901 -0.184768
H -0.980063 2.091479 -1.707276