21
H12 C7 O2
C 0.796069 1.138560 -2.366745
C -0.069878 2.015171 -0.570084
C 0.465431 0.790256 -0.924946
O 0.127779 2.538572 0.575880
C -0.569631 -0.555155 0.899529
C 1.893473 0.842187 -1.216959
C -0.057445 -0.571179 -0.523486
C -1.378376 -2.026437 2.610351
O -0.749650 -1.860374 1.333836
H -1.454310 0.002589 0.904144
H -2.377710 -1.574072 2.565444
H -1.332939 -3.066847 2.832503
H -0.901754 2.480119 -1.213102
H 0.141629 -0.102512 1.580620
H -0.806711 -1.532818 3.359200
H -0.849544 -1.025160 -1.176423
H 2.421393 -0.028319 -1.478435
H 2.454184 1.531615 -0.667641
H 0.501677 0.389425 -3.139646
H 0.747490 -1.374203 -0.592196
H 0.998853 1.988603 -2.791813