17
H9 C6 N1 O1
C -0.132579 -0.464031 1.206129
C 0.980194 -1.085060 1.932491
C -0.853124 0.354081 -1.009842
C -0.839386 0.347728 -2.430316
C -0.435113 1.444363 -3.099167
O -0.656497 0.720888 1.861852
N -0.157519 2.336308 -3.790036
C 0.281542 -0.080325 -0.226319
H 1.217928 -2.052680 1.505043
H 0.749845 -0.925309 -0.676875
H -1.014403 -1.085893 1.218920
H 0.777513 -1.231333 2.957007
H -1.215284 -0.540774 -2.944532
H 0.098215 1.274318 2.199217
H -1.709036 0.729643 -0.482687
H 1.041873 0.736623 -0.209605
H 1.865832 -0.478530 1.988724