17
H9 C6 N1 O1
C -1.740488 -0.598760 1.311561
C -2.177062 0.208430 0.050760
C 0.913981 -0.558654 -0.800987
C 2.556488 -0.163773 -0.859965
C -0.844043 1.009919 0.178218
C 0.281448 0.309785 -0.326412
N -1.060367 0.694393 1.663002
O 2.058922 0.796265 0.048197
H 2.957851 -1.164777 -0.623462
H -0.914135 -1.369174 1.379795
H -2.577753 -0.856044 2.021065
H 3.578150 0.482050 -0.410476
H -2.353465 -0.254958 -0.819564
H 2.641744 0.090412 -1.901736
H -0.838705 2.087074 0.092967
H -3.088111 0.844315 0.226932
H 0.605544 -1.556512 -1.229911