15
H6 C5 N4
N -0.096186 1.461989 0.206407
C 1.104010 0.924292 0.894144
C 0.247692 -2.659663 0.373667
N 0.246941 -3.857233 0.464838
C 0.169326 -1.314144 0.236589
N 1.186842 -0.465662 0.587723
C -1.274857 0.631630 -0.313186
C 1.112880 0.814614 -0.436607
N -0.966409 -0.755994 -0.310535
H -1.283540 -1.239946 -1.126884
H -0.189556 2.496454 0.037235
H -2.098605 0.748335 0.334923
H -1.558463 1.000110 -1.231692
H 1.784507 1.351528 1.616203
H 1.615439 0.863696 -1.332774