14
H5 C7 N1 O1
C 0.760251 0.371579 -0.445037
C 1.454150 -0.745471 -1.161182
C 0.775874 1.581082 -0.178627
C -2.062795 0.469807 1.609995
C -0.439964 -1.482178 0.044208
C -0.373528 -0.106720 0.211030
O 0.561089 -1.825052 -0.699346
C -0.894591 1.049314 0.773386
N -2.948860 0.191506 2.236724
H 2.423053 -1.002554 -0.811697
H 1.450718 2.385962 -0.438582
H -0.979805 2.003383 0.857955
H 1.465694 -0.664010 -2.261887
H -1.191283 -2.226652 0.263033