11
H2 C4 N4 O1
O -0.846106 -0.117631 0.290847
C 0.331488 0.031364 -1.766258
N 0.909898 1.355484 0.738828
C 0.371363 0.401565 1.135388
C -1.860879 -1.071054 -1.375292
N 1.126549 0.316926 -2.558763
N -2.711707 -1.696043 -1.693271
C -0.744395 -0.368221 -0.883977
N 0.505259 -0.403169 2.195146
H 1.241383 -0.219822 2.713097
H 1.677144 1.770601 1.204228