15
H8 C4 O3
O -0.481692 1.942941 -0.221804
C 0.074956 1.583796 1.038820
C 0.571629 0.966421 -0.266201
C -1.093948 -0.998492 -0.388026
O 1.250428 -1.257042 -0.214074
C 0.205917 -0.366013 -0.770744
O -1.158268 -1.320141 0.928611
H -0.278914 -1.748164 1.184639
H 0.403643 -0.385578 -1.840456
H -1.856728 -0.227601 -0.618244
H -1.239125 -1.853377 -1.058837
H 0.616117 2.315686 1.600622
H 2.106460 -1.001699 -0.282436
H 1.494332 1.407085 -0.688076
H -0.614816 0.942189 1.596199