21
H12 C8 O1
C 1.784197 0.176565 -0.762871
C -1.007536 -2.182747 -0.440594
C -0.303198 -0.589118 1.352061
O -0.869030 0.378757 0.534228
C 1.334539 -1.178375 -0.461915
C -0.117640 -1.138747 0.135052
C -0.238583 1.415166 0.082971
C 1.057202 1.342107 -0.460966
C -1.091192 2.615896 0.181560
H -1.784836 2.699626 -0.618485
H -1.643330 2.521897 1.133422
H -0.691693 -3.128050 -0.180384
H -1.016219 -2.135118 -1.573298
H 0.604717 -0.452426 1.929700
H 1.978742 -1.614527 0.298790
H 1.352293 -1.830881 -1.281751
H 2.757232 0.301208 -1.280484
H -2.024877 -1.993889 -0.173708
H 1.480026 2.359628 -0.735210
H -1.100212 -1.082898 2.049614
H -0.460615 3.515936 0.272283