17
H8 C7 O2
O -1.930802 -1.155641 -0.760906
C -0.249589 -0.151111 -1.966646
O -0.437457 -0.074366 2.601632
C -0.864235 -0.503390 -0.716755
C 1.414218 -0.044559 -0.045666
C -0.855384 0.756671 0.162391
C 0.560017 1.098084 0.372188
C 0.289443 -0.980824 0.236879
C -0.180132 0.022209 1.287737
H 0.415437 -2.054572 0.411569
H -0.452349 0.744616 -2.497878
H 2.004084 -0.041961 -1.002773
H -1.276848 -0.039479 2.960043
H 2.254840 -0.134960 0.651731
H 0.851469 2.054423 0.617613
H -1.637558 1.505195 0.304154
H 0.094835 -1.000343 -2.615301