23
H14 C9
C -0.762748 0.686244 0.553829
C -0.506743 -1.832670 -0.259524
C 1.259390 -0.185021 -0.618717
C 0.836521 -1.349173 -0.712508
C 2.411207 0.482982 -1.470827
C -1.708295 -1.204160 -0.833999
C 0.773291 0.671495 0.524603
C -1.203395 -0.734935 0.553579
C -1.239158 1.549660 1.781443
H -1.782332 0.897605 2.461900
H -1.216575 1.130902 -0.276900
H 1.496300 -2.037110 -1.188986
H -1.608579 -1.116471 1.521818
H -1.598651 -0.679446 -1.686766
H 2.827230 -0.271558 -2.143671
H 3.236375 0.896571 -0.862464
H -0.393976 2.007313 2.306146
H -2.657810 -1.757946 -0.877134
H 1.179619 0.384628 1.455539
H -0.544095 -2.826368 0.014835
H 1.980958 1.268879 -1.988241
H 1.066150 1.708204 0.323165
H -1.844689 2.310380 1.422869