18
H9 C6 N1 O2
O 0.037594 -1.460320 0.126367
C -0.731574 1.218589 -1.734560
N 1.479336 -0.293985 -1.186950
C 0.892265 -1.444666 -0.887890
C 0.706475 0.916426 -1.371487
O -0.477310 0.205061 1.720387
C -1.015058 -0.812758 2.598200
C 0.136364 -0.220735 0.698555
C 1.109454 0.592776 -0.070228
H -0.959689 2.218793 -1.358282
H -1.382268 0.613303 -1.262953
H 1.078883 -2.410740 -1.399262
H -1.505406 -0.256779 3.348240
H -0.857177 1.209078 -2.797071
H -1.639103 -1.427321 2.081725
H 1.912396 1.206156 0.548800
H 1.386236 1.609863 -1.993161
H -0.171440 -1.462770 2.939563