11
H5 C4 N1 O1
C -0.975132 0.699154 1.137238
C 0.430816 -0.817277 -0.550817
C 1.215933 -0.962324 -1.784384
C 0.113428 0.565394 0.119885
N 1.807720 -1.119922 -2.776825
O 1.164499 -0.334347 0.516873
H -0.354956 -1.562460 -0.457930
H -1.314143 1.729426 1.204409
H 0.451740 1.365471 -0.469519
H -0.636714 0.391234 2.157436
H -1.903199 0.045657 0.903624