23
H14 C7 O2
C -1.514456 -0.068639 1.681891
C -1.265726 -1.304790 0.774991
C -0.247089 -1.308910 -0.272382
O 1.037379 0.686750 0.088230
C 0.492647 -0.089120 -0.849582
C -0.638180 0.730143 -1.606189
C 2.263330 1.370860 -0.206826
C 0.043339 -2.002146 1.017210
O -0.503084 2.105762 -1.423807
H 3.105211 0.688552 0.183607
H -2.155383 0.636336 1.082721
H -0.583614 0.533862 1.842689
H 0.810587 -1.453714 1.596066
H -0.221338 2.175591 -0.533099
H 1.263097 -0.408262 -1.502863
H -1.644568 0.390033 -1.404133
H 2.268449 2.359046 0.352899
H 2.458176 1.598910 -1.254529
H -0.420938 0.482450 -2.693052
H -0.462106 -1.981354 -1.117601
H 0.047118 -3.046761 1.086457
H -2.170865 -1.859375 0.617687
H -1.962003 -0.235241 2.539629