20
H11 C8 N1
C -3.016721 0.729619 1.928872
C 1.592115 0.026658 -0.099041
C 2.105454 -0.675925 -1.311734
C -2.486703 0.874514 0.462729
C -1.051415 0.545069 0.313802
C 1.261891 -3.129666 -1.683542
C 0.108091 0.260466 0.098515
N 2.269156 1.384087 0.114569
C 1.544317 -2.003207 -1.460654
H -3.018241 -0.329321 2.291826
H 3.170602 1.324662 -0.080537
H -2.659056 1.870401 0.102223
H 0.987496 -4.149358 -1.845615
H 1.946351 -0.605061 0.826292
H -2.475663 1.330097 2.553329
H 1.811698 -0.058141 -2.171674
H 3.151243 -0.720358 -1.216927
H 1.878521 2.004268 -0.618802
H -3.076484 0.265635 -0.211861
H -4.042627 1.055526 2.008234