21
H12 C8 O1
C -1.496753 -0.112634 -1.160534
C -1.403437 0.140215 1.390135
C 2.074372 0.137624 0.482701
O 3.043911 0.543111 0.917806
C 0.747179 0.956614 0.347574
C -0.533862 0.104211 0.082201
C 0.625960 1.166839 -1.048632
C 0.276206 -1.173164 0.306432
C 1.636338 -1.161218 -0.143427
H -1.042653 -0.320683 -2.068696
H 1.729442 -1.329920 -1.189747
H 2.252832 -1.938191 0.340388
H -0.920590 0.099249 2.301040
H -2.289023 -0.661595 1.398159
H -2.181158 0.803154 -1.161175
H -1.998367 1.079793 1.359994
H 0.614758 1.805609 1.024842
H -2.129244 -0.942218 -0.929503
H 1.127019 0.798542 -1.784473
H 0.002126 2.033899 -1.297096
H -0.135039 -2.029221 0.831994