17
H8 C7 N2
C -1.294760 -0.436195 1.026049
C 1.295537 -0.363420 0.530234
C -0.145659 1.483414 -1.500261
C 0.971819 0.699118 -0.794877
C 0.764930 -1.846669 0.476130
C -1.049187 2.295716 -0.862273
N 0.463362 -0.572524 -1.223526
C -0.055471 -0.542368 0.299865
N -1.763704 2.995569 -0.426118
H 0.836995 -2.254796 1.592362
H 2.098393 -0.106628 1.193594
H -1.613298 0.550570 1.006968
H 0.865674 -2.619079 -0.203820
H -0.032459 1.414315 -2.556731
H 1.935064 1.102383 -1.180854
H -2.065357 -1.071863 0.487149
H -1.211845 -0.727538 2.136129