19
H10 C7 N2
C -0.303871 -1.344486 0.631283
N 1.796946 -0.117291 -0.159790
C -1.515847 -0.341585 -1.294908
C -2.140981 0.229533 0.185400
C 2.248228 0.857239 0.784655
C 0.465780 -0.430019 -0.216074
C -1.777604 -1.122227 0.004226
N -0.200904 0.192412 -1.216130
C 2.051467 1.247289 -0.554594
H 3.274240 0.667499 1.198074
H -2.043913 -0.427536 -2.234372
H -2.840023 0.879467 -0.213393
H 1.583247 1.218682 1.602089
H 2.919487 1.419500 -1.243466
H -0.126723 -1.170946 1.671642
H 1.266898 1.950076 -0.649146
H -1.947912 0.545555 1.302683
H -2.628791 -1.807920 -0.086632
H -0.079732 -2.445241 0.488412