17
H9 C5 N1 O2
C 0.241260 0.887371 0.933387
C -1.292086 1.211979 -0.809090
C 0.767748 -0.390508 0.354464
N 1.893677 -0.961165 -0.083867
C 1.382705 -1.412292 1.207142
O -1.026968 0.589907 0.437830
C 0.492915 -0.955196 -0.946801
O -2.274730 0.532843 -1.362705
H -2.627825 -0.008399 -0.706715
H -1.481788 2.226393 -0.420076
H 0.723032 -0.835354 -1.908514
H -0.482721 -1.521716 -0.925204
H 1.141442 -2.394967 1.241707
H 0.310488 0.955045 1.992963
H 0.811713 1.717818 0.424734
H -0.434089 1.367562 -1.505901
H 1.855234 -1.009327 2.076622