19
H12 C7
C 0.687549 -0.140924 0.028096
C -0.732902 -1.332089 -0.819657
C -1.516885 -0.814606 0.245117
C -0.899239 1.726487 -0.035251
C 0.645059 -1.561696 -0.325800
C -0.531387 0.382668 0.592806
C 2.050200 0.523117 0.189250
H 2.066808 1.219517 0.995692
H -2.482579 -0.454415 -0.129082
H 2.810658 -0.102781 0.315750
H -0.459397 0.394991 1.738987
H 0.654841 -2.228994 0.526563
H -0.864186 1.627458 -1.187153
H -0.285260 2.460515 0.295306
H -1.946949 1.977427 0.216770
H -1.639489 -1.484114 1.044708
H 2.211795 1.206472 -0.726596
H 1.242147 -1.795818 -1.105006
H -1.010793 -1.603205 -1.860487