20
H12 C7 O1
C 0.420320 0.467986 -0.004579
C -1.273230 1.134158 -1.651322
C 0.202742 -1.365300 1.852531
C 0.769614 -0.463387 -1.119078
O 0.592137 -0.720695 3.108866
C -0.481026 -0.216142 1.050346
C 0.048656 1.572113 -1.162603
C 0.151307 0.488930 -2.163827
H 0.532560 0.669732 -3.158545
H -0.856616 0.558589 1.737378
H 0.784696 -1.345820 3.661216
H 1.075258 -1.772215 1.394013
H -1.379495 -0.580133 0.492666
H -2.043630 1.224349 -0.738390
H 1.270655 0.872565 0.605864
H -1.873436 1.221453 -2.426505
H 0.366771 2.571848 -1.199707
H 0.357727 -1.476986 -1.144101
H -0.521161 -2.189147 2.067224
H 1.856145 -0.651914 -1.201454