20
H12 C6 O2
C 1.484120 -0.032294 -1.243300
C -0.073796 0.055165 1.072841
O -1.444053 -1.300753 -1.490808
C 0.724054 -0.724722 -0.009106
C -1.635641 0.036318 0.943198
C -0.121764 -1.197469 -1.275546
C 0.434469 1.509855 1.205042
O 0.243441 0.114511 -1.962434
H -1.439242 -0.406230 -1.728898
H -2.032674 0.677064 1.758809
H -0.156653 2.073813 1.925857
H 0.436424 2.046626 0.218686
H 2.198236 -0.678547 -1.695543
H 1.384926 -1.432636 0.455412
H 1.514823 1.498371 1.444935
H -2.021427 -0.963521 0.972744
H 0.290551 -2.306171 -1.468168
H -1.875940 0.539695 -0.008256
H 1.898391 0.954594 -1.131558
H 0.191817 -0.463644 2.016111