17
H8 C6 O3
C 0.431965 -0.379183 0.843012
O 2.320339 -0.846921 2.178413
C -0.837584 0.253742 1.291983
C -0.641662 0.909229 -0.862278
C 0.494357 0.071574 -0.627793
C -0.709390 -0.357475 -1.681623
O -1.623995 0.797745 0.196145
C 1.512646 -0.092052 1.866863
O -0.135704 -0.452075 -2.957663
H 1.497546 0.320547 -0.974148
H 0.301088 -1.506880 0.791381
H -1.673644 -0.821320 -1.556967
H -0.565531 1.798572 -1.398263
H 1.538828 0.945261 2.106004
H 0.242739 -1.364110 -2.985641
H -0.655920 1.170053 1.906553
H -1.496049 -0.446707 1.864056