15
H6 C5 N2 O2
C 0.266869 -0.648740 1.054990
C 0.973970 -0.443292 -0.986295
N 1.115151 -1.296810 0.172082
C 0.364223 0.867489 0.723738
O -0.950953 -0.294944 -2.496556
C -0.968316 0.121398 0.819320
C -0.256087 -0.241648 -1.655962
O -1.937963 -0.469258 -0.040767
N 0.988528 0.946084 -0.623436
H 0.382035 -1.145579 2.101186
H 0.499896 1.664913 1.372162
H 1.741247 -0.817299 -1.772586
H -1.488132 0.466061 1.767689
H 2.013822 1.231099 -0.431574
H -2.744319 0.060516 -0.003983