21
H12 C8 O1
C 1.169898 1.242023 1.166727
C 1.457946 -0.356115 -0.654199
C -1.876176 0.703363 -0.897881
C 1.681909 0.482015 -0.023541
C 0.434167 -1.474017 -0.760963
C -0.505854 -1.061224 0.419258
O 0.803562 -2.752965 -0.614795
C -0.297182 1.356204 1.005160
C -0.604527 0.375507 -0.102269
H 1.476922 -3.057651 -1.180634
H -0.035461 -1.168334 1.434345
H 1.690938 2.186940 1.297349
H 2.532893 -0.311225 -1.084770
H -2.269415 -0.210267 -1.386736
H 1.413330 0.725722 2.154130
H -1.561356 1.410172 -1.692873
H -0.083626 -1.291740 -1.749193
H -1.339243 -1.590416 0.436870
H -0.968488 1.270306 1.914546
H -0.515430 2.417620 0.594100
H -2.604791 1.104060 -0.274624