18
H9 C7 N1 O1
O 0.950569 -1.655049 1.520740
C 0.125191 0.451782 -0.579157
C -1.028934 0.663773 0.184725
C 0.589432 -0.885202 -0.601152
C -0.822293 -0.858284 -0.031904
C -1.090991 1.865086 -0.714212
C 1.760044 -0.994480 0.512028
N 0.403770 1.643839 -1.071789
C -0.306803 -1.496443 1.131750
H -1.633994 1.685068 -1.641280
H -1.004379 -1.871526 1.920621
H 0.828232 -1.463611 -1.501681
H -1.566859 0.798745 1.209005
H 2.106551 -0.014940 0.832929
H 0.956017 2.236914 -0.550997
H -1.587763 -1.366144 -0.633062
H 2.609080 -1.549277 0.316765
H -1.286842 2.809745 -0.303316