15
H7 C5 N1 O2
O 0.015762 -1.402183 0.992668
C 1.065260 -0.705101 0.619606
C 0.966076 0.617980 1.168555
O -1.555138 -0.140854 -2.096990
C -0.297632 1.249291 -0.666414
C -1.056582 -0.038313 -1.119797
N -0.129834 1.291995 0.736824
C -0.838109 -1.295106 -0.170716
H 0.946483 0.525020 2.313893
H 1.857773 -1.130606 0.098289
H 1.956845 1.192047 0.958294
H 0.624325 1.283797 -1.357161
H -0.646468 -2.089649 -0.801593
H -0.927105 2.081617 -0.948019
H -1.981644 -1.439995 0.272538