17
H8 C8 O1
C -1.430876 0.310271 1.538187
C 1.071815 -0.285569 -1.031544
C 0.230561 0.855118 -0.397944
C 1.510576 1.079266 0.358146
C -0.778094 0.114105 0.386497
C 0.077168 -1.488447 -1.104305
O 1.926326 -0.295510 0.025416
C -1.096848 -0.763117 -0.645679
C -1.970430 0.482770 2.636436
H -2.144475 -0.895374 -0.958937
H 0.320020 -2.351647 -0.512295
H 1.307600 1.194501 1.475902
H 2.205830 1.815466 0.002135
H 1.564291 -0.117509 -2.011889
H -2.516088 0.644519 3.501607
H -0.198366 1.564680 -1.167219
H -0.078988 -1.863490 -2.094519