20
H11 C7 N1 O1
C 0.075595 1.591567 -1.345080
N -0.882198 2.076009 -0.364169
C 1.908019 -1.246910 1.489616
C -1.174328 -1.533699 0.520157
O 1.145988 -0.866216 -0.621617
C -0.172107 -0.585872 0.109669
C 1.171820 -0.241839 0.595923
C -1.936037 0.613682 -1.083623
C -0.681969 0.651741 -0.504086
H -0.867856 -2.331665 1.135327
H 1.088909 1.890365 -1.203568
H 3.032104 -1.087628 1.296811
H -2.142795 -1.424879 0.158779
H -2.875955 0.797490 -0.607931
H -2.083220 0.189872 -2.127017
H -0.112643 1.424143 -2.358404
H 1.731813 -0.991011 2.548368
H -0.398074 2.481617 0.404286
H 1.598114 -2.214073 1.250499
H 1.574777 0.807292 0.706037