12
H4 C4 N2 O2
O -0.719655 0.651383 -0.755668
N 1.660570 -0.019346 2.115594
C 0.121343 0.461915 0.290187
C 0.508280 -0.869344 0.504912
C -0.015536 -2.105975 -0.219450
N 1.292927 -1.000321 1.573023
C -0.902266 1.880829 -1.078511
O 0.349778 -3.227388 0.138504
H -1.616387 2.094804 -1.827670
H 0.458291 1.349636 0.797224
H -0.408537 2.685037 -0.600622
H -0.728805 -1.901261 -0.937521