19
H10 C8 O1
C 0.198837 0.310588 -0.788181
C 0.030712 -1.655293 0.678441
O -0.942081 2.307665 -0.185351
C 0.705069 0.444955 1.771758
C 1.795845 -3.293898 -0.129236
C 0.287133 -0.301861 0.534719
C -1.256081 0.897936 -0.648855
C 1.012552 -2.515017 0.266742
C -1.585472 2.087912 -1.460665
H 0.290249 0.011190 2.658892
H 0.957270 1.118491 -1.056754
H 1.882760 0.356324 1.863744
H -1.055279 2.185907 -2.383677
H 0.543020 1.471877 1.678606
H 2.465733 -3.910549 -0.395432
H 0.228402 -0.467670 -1.667480
H -0.903956 -1.902850 1.069290
H -2.026495 0.350120 -0.291212
H -2.628223 2.504175 -1.515348