15
H6 C6 O3
C -0.669927 0.312131 0.715007
O -1.228827 -0.669339 -0.177941
C 0.118690 -1.185673 -0.241885
O 1.678120 0.663722 0.079407
C -1.216409 -0.577120 3.198262
O 0.491861 -2.300235 -0.160274
C -0.942941 -0.170232 2.029146
C 0.387171 0.589585 -2.067809
C 0.510833 0.182478 -0.505471
H -0.617638 0.312734 -2.341445
H 2.336186 0.876089 -0.551299
H -1.525296 -0.905297 4.161220
H -0.956986 1.318725 0.632233
H 0.604790 1.600919 -2.145693
H 1.030375 -0.048476 -2.623474