20
H11 C6 N1 O2
C 0.791823 -1.803581 -0.693900
C -0.680264 -1.229869 -0.194306
C -1.021532 -1.004663 1.256757
O 1.073801 -1.988281 -1.754701
C -1.134784 1.144970 -0.839333
N -0.950067 -0.218352 -1.045710
C 0.290463 0.755329 -0.683479
C 0.918012 1.680390 0.291517
O 2.077895 1.138615 0.926294
H -0.430470 -1.735302 1.915816
H 2.426641 0.523759 0.655637
H -0.723272 0.038371 1.655391
H -1.728137 1.564425 -0.130479
H -2.077054 -1.064993 1.451938
H 1.361617 -2.203277 0.155769
H -1.284354 -2.195554 -0.413984
H 1.288486 2.531870 -0.210363
H 0.239896 1.975237 1.100376
H 0.950778 0.463173 -1.517659
H -1.389441 1.627755 -1.925572