19
H10 C7 O2
C -0.053504 -0.037077 0.846499
C 1.993099 -1.398359 0.878017
C -0.892273 1.251054 -2.287251
O 0.323329 1.385798 0.965308
C -0.862876 0.848053 1.724299
O -1.772645 -0.857624 -0.852389
C 0.845068 -0.958807 1.483903
C -0.719179 -0.120420 -1.751381
C -0.586523 -0.344934 -0.337460
H 2.804961 -0.865833 1.455792
H -0.179036 1.475735 -3.126057
H 2.018095 -1.195640 -0.203024
H -0.723210 2.032084 -1.477590
H -1.784026 1.047784 1.420325
H 1.904740 -2.491686 1.015633
H -0.407233 -0.814842 -2.424759
H 0.661184 -1.228188 2.572065
H -1.885924 1.347432 -2.646282
H -0.684058 0.925492 2.744368