18
H9 C7 N1 O1
C 2.739898 0.443437 -0.601821
C -0.623043 -0.118703 1.349915
O -0.177891 1.616106 -2.295382
C 1.597538 0.469662 -1.086084
C -0.047232 -1.196410 2.120190
C -1.354166 0.131684 0.236153
C 0.262152 0.592843 -1.505798
C -0.803532 -0.430764 -1.061102
N -0.611141 1.118819 1.160831
H -1.514174 -0.546759 -1.850231
H -0.054570 1.749223 0.591730
H 0.795603 -1.703307 1.576494
H 0.281351 -0.809201 3.042683
H -0.806247 -1.960286 2.270536
H 3.710173 0.462671 -0.349806
H -0.675648 1.258433 -2.912581
H -2.444442 0.276833 0.275211
H -0.274613 -1.354238 -0.960923