20
H11 C7 N1 O1
C 0.897644 -2.320413 3.383817
C 0.001390 1.149875 -1.195611
C 0.502456 -1.170315 -0.638079
C 0.004198 -0.764518 1.584829
C -0.621168 -1.327043 0.370964
C 0.472027 -1.643579 2.547561
C -0.383698 1.956426 -2.293059
O 0.258910 -0.055216 -1.443274
N -0.114886 1.758863 -0.020225
H -1.484779 -0.670943 0.112894
H 0.036958 0.303169 1.734042
H -0.992050 2.191628 0.281080
H -0.057636 3.016835 -2.187490
H -1.485158 2.043391 -2.480813
H 1.273892 -2.961437 4.175646
H 0.517694 -2.068031 -1.268972
H 0.031229 1.517679 -3.278126
H 1.485389 -1.051430 -0.173531
H 0.662660 2.386661 0.225742
H -1.005046 -2.291591 0.562642