17
H9 C7 N1
C -0.503871 0.906987 0.596302
C 0.008190 0.547688 -1.940928
C 1.102531 -0.198456 0.941157
C -0.989186 -1.119088 -0.105016
N 0.873283 1.276319 1.135494
C -0.449479 -0.574237 1.112996
C -0.296170 0.023540 -0.690184
C 1.016143 -0.216141 -0.628234
H -0.037209 1.581758 -2.206315
H -2.131534 -1.066338 -0.206876
H 0.841361 1.622026 2.022098
H -0.274968 -0.071248 -2.828423
H -0.691665 -2.105434 -0.435692
H -1.406963 1.490188 0.672053
H 1.931703 -0.580998 -1.131544
H 1.815779 -0.722144 1.550570
H -0.807958 -0.794463 2.142534