21
H12 C8 O1
C 1.043906 -3.306787 1.144383
C 0.095807 1.437355 0.374414
C 0.422299 -0.999917 0.612253
C -0.836392 0.438052 -1.319485
C -1.206694 1.659716 -0.586458
C -1.300815 2.956790 -1.204073
C 0.873994 -1.893333 1.408561
C -0.014006 -0.088179 -0.153414
O 2.404601 -3.567979 1.440739
H -1.419079 3.825839 -0.480931
H -2.159072 3.079509 -1.834413
H -1.588085 -0.050841 -1.788410
H -0.055398 1.631220 1.466007
H -0.368555 3.175896 -1.808118
H -2.063761 1.429675 -0.012231
H 1.246054 -1.730958 2.347777
H 1.001713 1.943339 -0.003149
H 0.766417 -3.625870 0.063641
H -0.105428 0.706093 -2.186649
H 0.313889 -3.780429 1.839925
H 2.948615 -3.239232 0.679646