11
H5 C3 N1 O2
O -0.045647 1.381851 0.371852
C -0.237135 -0.925554 0.033574
C -0.461384 0.191581 1.057559
O 1.081670 1.919233 -1.372077
C 0.557568 1.076950 -0.793762
N 0.502870 -0.275805 -0.987547
H 0.149209 0.073630 1.940542
H -1.154090 -1.355245 -0.286458
H -1.485048 0.351440 1.391965
H 0.817210 -0.637439 -1.839735
H 0.274799 -1.800626 0.484090