23
H14 C9
C -1.965733 0.613801 1.427782
C 0.274815 -0.900911 -0.372982
C -0.915152 1.637812 0.945655
C 1.742947 -0.542093 0.112953
C -0.294768 1.598670 -0.446594
C 1.633430 0.858148 0.708400
C 0.554214 1.439271 0.631693
C -0.245177 0.219023 -1.227858
C 0.427188 -2.249345 -1.078994
H -0.352894 -0.975812 0.436879
H -0.312382 2.422962 -1.042878
H 2.671602 1.337756 1.184205
H -1.172544 2.639851 1.200647
H -1.278915 -0.023416 -1.559775
H 0.584374 -3.049628 -0.317711
H -1.542849 -0.112767 2.060570
H -0.552753 -2.510739 -1.568210
H 0.343439 0.322751 -2.149672
H 2.427100 -0.574558 -0.675034
H -2.501995 0.197742 0.569520
H 1.175447 -2.315530 -1.835040
H -2.735032 1.122907 2.058753
H 2.035623 -1.155887 0.937704