16
H7 C6 N1 O2
N 0.937375 -0.853670 0.825020
C -1.439944 -0.062408 0.738872
C -1.861879 1.469302 -1.246416
C -0.092197 -0.474336 0.363970
O -2.527735 2.344280 -1.876777
C 0.771362 -0.588070 -0.739878
C -2.242306 0.822167 0.014923
C 2.368211 -0.751281 0.935416
O -1.759875 -0.657682 1.804351
H 2.837387 -1.512776 0.346077
H -3.243056 0.994951 0.386665
H 1.268041 0.266352 -1.214560
H 2.557174 -0.969726 1.995123
H -0.982263 1.203228 -1.773511
H 2.673287 0.199613 0.746815
H 0.736450 -1.429943 -1.306093