12
H5 C4 N1 O2
O 0.573444 -0.260067 2.252803
C 0.223032 0.436843 1.374757
C -1.485573 0.984135 -0.234080
O 1.400407 -1.325511 -0.617829
C 0.328445 -0.479630 -0.990356
C -0.585850 -0.046308 0.182053
N -2.285154 1.831245 -0.602871
H 0.817889 0.445654 -1.438326
H 0.574947 1.481317 1.239604
H -0.262003 -0.949598 -1.795511
H 1.805149 -1.137879 0.123247
H -1.104706 -0.980194 0.506506