23
H14 C9
C -10.380909 -5.041278 16.449821
C -1.466432 19.532642 11.310669
C 18.573589 -15.750948 -13.722324
C -16.235844 -2.752247 12.336267
C 25.662788 5.894077 -1.779777
C 4.677419 -12.338336 -13.353125
C 29.906471 -5.378410 -14.662135
C 20.007765 3.485059 -5.729885
C -13.979491 3.285829 17.965672
H -18.344122 6.668344 16.570522
H 14.525463 -14.329233 21.826241
H -20.935549 0.293425 -20.210165
H 6.605412 17.310236 -0.551602
H 0.266315 -0.933111 -19.183090
H -4.822202 -0.423021 12.175151
H -6.672597 8.330260 3.543243
H 13.006886 7.107563 -28.065794
H 3.529922 13.318244 17.639467
H 27.087034 -4.385603 7.071125
H -21.553606 -8.884665 2.441963
H -2.497242 4.727598 -13.396842
H -24.802597 1.271030 -14.907893
H -22.158545 -21.007460 6.232564