18
H9 C6 N1 O2
O -13.735976 -5.190900 33.825695
C 25.181236 18.321671 -8.574384
C -3.265689 -5.113803 1.806914
C 4.152756 -5.437508 18.113966
O -2.285836 -7.695096 -13.765325
C -17.681108 -0.562895 -6.394480
C 33.722553 -13.669407 -8.163182
C 12.971840 29.532167 3.356636
N -25.013004 12.280358 -21.942282
H 12.563582 -3.644063 -0.087049
H 17.299177 -14.413641 12.116902
H -12.525600 -4.392219 3.431097
H -25.468519 -12.077247 -26.493084
H 15.341339 -6.632795 -0.908180
H -6.101579 -7.198524 28.060669
H 13.018193 0.014885 -15.547288
H -13.591319 12.139031 -7.359064
H -14.581999 13.740008 8.522365