22
H13 C7 N1 O1
C 18.471510 8.108864 -3.046394
C 10.275407 6.977998 -28.756508
C 21.023876 13.073951 19.323578
C -5.738424 -8.542343 23.001226
C -7.232280 20.676609 18.166786
O 16.963717 -25.945843 0.537531
C -8.890183 -5.373667 -5.263835
C 11.767011 16.123466 -5.746889
N 12.190188 16.764021 5.053641
H 27.701574 -13.291521 -8.411366
H 5.016990 -1.477779 23.525684
H -19.867550 17.883705 -31.045973
H -6.836014 -19.935177 4.690318
H -13.547018 8.595054 7.086723
H -6.854343 -22.917004 -15.775919
H -18.366085 19.249794 -0.632622
H -8.403032 -19.610197 -7.204014
H -2.621756 0.407597 12.914274
H -20.459612 -10.230433 7.702342
H 5.650906 -10.867913 -11.763427
H -19.898533 -8.195470 4.178757
H 9.653618 18.526325 -8.533880