21
H12 C5 O4
O 15.759366 -14.714476 -11.202590
C 20.483459 19.983034 -4.125482
C -1.474361 8.060535 10.029935
O -41.382465 10.732950 0.547211
C 4.106797 -21.593231 -19.200312
C -2.032079 12.718018 10.291009
O 6.039907 36.244949 -13.569870
C -7.073793 1.312821 32.925480
O -1.425870 -9.106440 18.709892
H 11.947752 21.266901 2.934463
H -0.213122 -9.589536 25.543062
H -21.614553 -1.452076 1.894793
H 13.521322 -10.497859 -4.781726
H 9.092484 -3.269109 2.221182
H 9.131285 -23.656963 -6.892684
H -3.337238 11.095050 1.644172
H 21.674322 -3.069927 -9.173918
H 15.808335 6.727262 -21.426189
H -36.213539 -30.298618 -10.933949
H -15.233391 -8.817677 1.324839
H 2.435313 7.924321 -6.759361