14
H6 C5 N2 O1
C -19.952351 22.293913 3.446023
C 16.193115 -10.783038 -10.517554
C 1.393586 2.018244 -6.560994
N 11.252984 -24.334911 5.832371
C -12.717372 -3.198186 1.310121
O 1.752915 5.192299 -14.803700
N -8.757537 3.796222 -7.837379
C 16.827435 -14.580606 11.020216
H 6.563164 -15.981196 14.058908
H -15.566677 -3.040602 -15.618835
H -11.010823 17.969229 15.403651
H 10.593060 7.973790 17.356831
H -3.166094 3.846246 -0.364102
H 6.594594 8.828579 -12.725586