13
H4 C4 N2 O3
O -20.383162 -17.700577 -22.931700
C -8.095468 13.323599 11.491473
C -0.611630 2.370603 8.071534
O 9.052093 -6.305561 -4.975141
C -12.304776 9.997861 -18.390121
N 11.049560 -0.930418 24.873774
C 15.044291 -2.344231 -0.883067
N 6.839892 -17.895025 -5.806762
O -13.188549 -1.060928 -17.488550
H 1.116220 -22.572493 -7.993240
H 8.189318 20.318134 13.210402
H -12.531897 -2.097318 6.599821
H 15.824071 24.896379 14.221704