13
H4 C5 N2 O2
O 32.868740 -5.852254 2.054754
C -2.638242 15.225834 9.481065
O -24.365374 -4.785556 17.298601
C 10.314690 3.085932 5.299166
N 3.484226 19.534218 -9.392484
C 1.695212 -0.155009 4.737302
N -10.330344 -10.121508 -2.210693
C 1.294712 -0.319649 -12.348808
C 9.999942 -14.355546 -6.350250
H 11.605239 -2.518497 18.827929
H 4.718616 -13.626207 -8.841903
H -19.158190 -3.603842 -16.071411
H -19.489231 17.492020 -2.483312