18
H9 C6 N3
C 20.408213 8.040907 -6.516874
C 1.233809 16.947208 -11.991794
N 0.270633 10.053032 17.093874
C 0.388318 -0.511709 8.307727
C -4.018884 -3.414598 9.669061
N -13.534210 -15.518723 -0.599812
C -15.883859 3.188802 3.709322
C 11.244760 -14.682952 23.763863
N -5.539022 -7.001299 -30.395557
H -5.062052 -10.593769 1.792047
H 0.501823 9.535254 14.926068
H -9.396596 2.249278 -20.528133
H -4.167675 -0.110137 -28.068220
H 11.933635 21.517963 0.205124
H 7.208652 14.149919 10.782939
H 6.299838 10.280955 -18.738939
H -3.377614 -16.424053 27.854494
H 1.490233 -27.706081 -1.265240