21
H12 C7 O2
C 18.496494 12.359913 -10.174812
C 17.284611 -1.926055 18.541958
O 4.009057 -2.157562 26.785259
C 3.085011 -4.483828 12.389981
C -4.623619 13.458675 -3.421958
C 30.685860 -19.132362 -4.631957
O -24.743130 -23.670063 -20.642965
C -22.257322 -17.401396 -16.627525
C 9.996872 33.244648 -10.262106
H -3.555317 8.304003 13.454754
H -10.721135 -5.689682 -17.356972
H -2.913023 7.850975 4.558264
H -2.337742 6.867871 -18.354935
H 12.034824 -6.404121 -0.375550
H -9.144803 23.950563 -12.699879
H 8.887582 -27.010300 -3.497259
H -10.432689 -4.667578 10.458447
H 7.675244 -9.309248 6.927318
H -1.328249 -10.977217 10.739117
H -15.572063 26.061710 5.597809
H -4.526434 0.731078 8.593090