20
H12 C8
C 4.836665 -14.068194 15.047667
C 4.848131 5.699221 -10.933318
C -4.597070 24.783295 12.884771
C 15.462607 -22.180552 9.363825
C -9.883866 12.114006 2.177048
C -14.275455 6.961874 9.500393
C 19.463591 4.185347 3.513122
C 3.100646 -1.889836 4.601193
H -12.463964 -19.569202 4.087506
H -11.088535 -3.228770 10.305193
H 19.399029 15.876140 -0.654696
H -4.451610 -11.496463 -9.221613
H -0.081312 0.306370 -3.186612
H -3.568599 2.226490 -0.856548
H 9.191545 -11.947617 -7.154705
H 17.822460 10.447371 1.139866
H -23.396738 -5.336250 14.950756
H 2.232651 -4.457694 -25.147415
H -10.203875 -19.440624 -41.424248
H -2.346413 31.015047 11.007874