18
H9 C6 N1 O2
C 20.460358 0.420156 -24.120329
C 10.185817 6.975035 4.121197
C -15.257142 4.178988 0.342091
O -2.818936 -7.674371 -5.828818
C -1.495899 0.551166 19.444984
N 4.543252 13.715964 -3.903381
O -11.764767 -26.089314 5.800952
C -9.748820 1.600785 11.485682
C -29.167393 4.093703 -9.423507
H 14.309725 14.153390 25.985626
H 25.904106 28.521381 3.029543
H -16.127390 -25.714626 -1.282467
H 1.663916 7.287931 10.688628
H 9.310453 10.785037 9.203696
H -3.057436 1.393924 6.012566
H 16.211262 -3.269815 -22.591053
H -12.491070 -20.934851 -5.670046
H -0.660075 -9.994488 -23.295364