23
H14 C8 O1
C 13.374781 -9.817527 1.985628
C 33.102364 24.736629 -8.790256
C 18.482077 -3.415840 2.831001
C 14.859512 -7.321115 12.326908
C -8.499450 0.081035 -9.691259
C -5.858641 9.547829 -14.973470
O -9.398428 1.868559 2.051050
C 23.600208 0.351337 -12.137900
C -18.112507 -3.706023 22.712152
H -13.385214 10.142710 -16.190466
H -3.132318 -3.482845 -20.712904
H 3.636989 2.051258 11.511534
H -0.490984 -11.206647 3.550983
H -18.233154 -13.886883 9.866280
H 21.502073 -4.742249 5.480628
H -8.967564 5.800141 -20.164171
H 9.135221 0.270907 20.359806
H -15.454775 18.844299 21.065533
H -30.590506 -15.052331 -1.215362
H 1.456607 -7.421171 -9.458291
H -5.016594 8.625510 14.959186
H 12.119135 -0.450710 -7.756372
H -14.128849 -1.816901 -7.610220