17
H8 C7 N2
C 11.862054 26.196457 16.591053
C 0.238061 16.782209 -23.475838
C 10.486024 3.622920 -17.496742
C 16.529314 3.800046 22.410004
C -0.552062 1.557483 -2.997459
N 5.708223 2.322359 -13.729935
C -15.290793 2.437897 2.222573
C -11.843612 -18.355223 -7.014159
N 16.712721 3.900765 9.730891
H 9.389225 10.277884 31.174538
H -13.227872 -4.207671 -14.020788
H -19.564598 -24.859983 -2.242446
H -1.208913 -4.404243 -23.539701
H -11.764059 -18.976679 7.906059
H 14.272094 -9.327210 23.584879
H -17.985826 9.991885 -15.413446
H 6.240002 -0.758988 6.310577