18
H9 C7 N1 O1
O 9.184169 -28.379005 4.658069
C 6.813989 -5.233084 -14.787715
C -0.166110 0.118095 2.797187
C -29.260448 -9.519133 -8.638840
N -3.344464 3.717573 13.955206
C -10.292613 -6.799460 2.979770
C -1.375872 3.790460 -25.485893
C 9.816646 -15.634867 -19.926371
C -7.809293 7.385098 14.208826
H 4.925307 12.224815 -1.094096
H 8.307540 -4.453705 18.579666
H 1.300395 1.656991 1.294280
H -18.439615 23.773344 10.393639
H 18.088984 12.716533 -6.570228
H 9.336106 8.067849 -10.174831
H -16.253071 8.215746 1.604657
H 6.430079 -6.326640 7.184181
H 12.738312 -5.320716 9.022504