17
H9 C5 N1 O2
C 13.518217 0.346807 -10.257862
C -19.100868 7.760640 -28.801771
O -2.582876 5.303411 1.406867
N 2.677916 -8.736577 21.080513
C 25.250025 7.652241 12.183022
C 10.191743 1.399178 -21.082306
O -0.347644 5.695541 -4.018612
C -5.942314 16.364349 -11.317556
H -3.470394 -28.599503 2.100067
H -10.091619 3.100684 3.595448
H -1.007414 9.988529 -0.306305
H -12.073503 28.336441 12.530890
H -22.842455 -16.386265 5.215910
H -12.440804 17.995667 9.661253
H 16.557617 1.038601 -24.809839
H 10.645938 -35.526859 7.197457
H 11.058525 -15.732826 25.622900