18
H9 C7 N1 O1
N 0.167483 -0.234154 -4.707170
C 7.543200 21.346153 -15.701998
O -1.222519 -16.176130 30.590084
C 21.672812 3.944780 -13.314354
C 0.736800 -1.174005 -1.516976
C -15.581754 -0.861400 6.440146
C 4.240063 12.235507 17.157700
C 16.805389 -16.913027 1.271061
C -3.495684 -1.397953 -11.019350
H -21.817654 -7.272393 1.536497
H 5.822348 31.114616 -6.661261
H -20.867313 -5.756170 -0.681798
H 10.547311 -3.182761 17.979931
H -28.914114 12.727077 -1.041047
H 6.693023 -3.582767 11.186377
H 7.062933 -6.247696 -17.435160
H -15.643970 6.395423 -28.789192
H 26.251644 -24.965019 14.706487