12
H3 C5 N3 O1
N -23.092573 -0.661944 -25.045227
C 5.650041 -15.883208 16.253155
O 36.662373 -1.393775 -1.935299
N 12.911736 13.579758 -12.433760
C -29.814976 -9.637082 17.872492
C -1.454082 5.214688 25.640461
C 1.423539 14.624483 2.666286
C 5.715786 -5.443505 5.378819
N -11.828388 0.642813 -7.428804
H 8.621399 -4.064960 -14.933364
H -16.602825 9.644663 -7.768711
H 11.808042 -6.621929 1.733873