14
H5 C6 N3
C -18.238991 -5.596502 25.260191
N 6.667389 10.192445 -12.136789
C 2.015436 -9.811183 19.318251
C -14.674224 14.383571 -2.782345
C -11.250546 1.566700 -3.080570
C 9.568246 -7.158351 -2.144994
C -5.926913 -6.884665 4.379938
N 11.948182 29.251348 11.571489
N 8.753449 -25.834976 18.179522
H 9.639866 -4.178493 -5.490883
H 0.769835 -13.695798 17.695488
H -2.754559 1.333703 -22.441343
H 7.067761 -2.301163 -26.064878
H -3.584928 18.733467 -22.263042