17
H8 C7 O2
C -1.647187 17.081989 -4.832420
C 13.745333 3.713644 5.491062
O 16.424944 -32.853886 -7.647062
C 7.171822 0.336172 -2.568075
C -1.931062 6.158574 7.347708
O 1.478848 16.622328 -2.916746
C -1.421372 18.331867 -11.616572
C -8.637210 2.070323 7.761822
C 6.252601 -6.653115 7.986180
H -4.197156 -17.489784 4.915217
H -9.789261 4.309844 7.915661
H -18.451231 28.093519 2.143530
H 2.267040 -3.344392 12.990189
H 5.527881 -18.123148 11.079066
H -17.638079 0.559968 -33.466625
H 8.896816 6.693995 -1.192888
H 1.947268 -25.507879 -3.390057