15
H8 C4 O3
O -6.960361 -21.198702 28.335085
C 7.525565 -19.979393 -9.053688
C 19.513689 11.583725 -0.844419
C -7.956253 7.971909 0.780773
O 21.099916 -1.938182 -4.303592
C 7.066613 -11.287876 -5.156904
O 7.181391 42.976555 2.879550
H -26.578127 -7.420750 13.883811
H -1.333680 2.214789 -2.822321
H -15.999974 7.174428 -23.758490
H -1.959836 0.221902 -3.045228
H -5.294280 -15.583869 -0.457545
H -0.839215 -4.620150 1.208362
H -1.343286 16.775927 8.640526
H 5.877806 -6.890387 -6.285889