17
H8 C8 O1
C 5.450837 -0.384144 10.622458
C -7.936759 -6.403433 28.400501
C 4.951737 -11.051149 0.440728
C 4.940354 -19.210037 -5.165487
C 3.091526 -4.384208 -2.292873
O -3.098568 24.058218 -3.774301
C 7.975729 7.902031 -12.354255
C -12.279753 19.730347 8.201743
C 1.670105 3.102088 12.593548
H 20.888384 3.692393 1.565299
H -20.206781 -2.154318 15.971439
H -5.103239 -8.877621 0.632744
H 2.021080 -15.738701 -15.905075
H -4.526490 12.168866 -19.279125
H 9.898542 -0.772822 -0.547065
H -4.912766 2.567810 -12.249637
H -2.823918 -4.245294 -6.860569