18
H9 C7 N1 O1
C -6.387153 -0.431064 -5.618992
C -9.001313 -5.238710 13.977570
C -27.993025 -7.964688 -4.538071
C -12.375281 -10.218510 7.370895
C 11.368271 11.791732 10.390762
N 21.479460 -7.854246 0.330205
C 24.237867 6.307630 -14.297188
C 5.769543 0.580903 21.139076
O -11.058803 -21.213621 -8.086023
H -2.148690 -1.880367 -8.081877
H -2.361503 19.446369 -19.640610
H -13.974246 -15.377215 -1.750567
H 8.101717 -4.650457 -14.204450
H -4.674524 15.443332 17.986362
H 13.052427 -13.895955 2.049806
H 13.704802 -10.051019 14.328065
H -2.432643 6.790695 -0.381130
H -5.306833 38.415188 -10.973785