21
H12 C7 O2
C 12.093916 -11.486134 -8.283022
O 13.741102 23.147800 -2.509274
C 3.073193 4.134139 -7.841268
O -16.819843 -31.377974 -0.609770
C 12.670598 -28.990297 -22.237537
C 1.294538 -2.505308 -6.235859
C -7.464928 -2.754982 1.701658
C 19.929699 17.180113 7.501126
C 1.985120 5.995935 10.860502
H 4.899047 -3.077091 -10.017409
H -5.381375 -4.441525 -14.391088
H 0.402072 27.685965 -5.233739
H -20.231157 -10.403392 -18.122326
H -28.738398 10.702483 13.554270
H -0.936414 -33.404610 18.843447
H -2.869443 -10.286044 9.925787
H -9.936904 -5.065187 -1.442803
H 5.834565 24.700811 14.031115
H 22.524439 8.271945 5.015922
H 0.407674 14.431594 -11.378576
H -6.477521 7.541784 26.868900