16
H7 C6 N2 F1
C 1.517200 0.869966 1.091376
C -1.684807 0.340825 -0.833606
C 0.434761 0.042806 0.386262
N -0.881897 0.635450 0.180688
C 0.847840 -0.308011 1.812934
C 0.101846 -0.988878 -1.677351
N 0.859896 -0.827953 -0.670745
C -1.185231 -0.455739 -1.815879
F 0.550026 -1.795171 -2.664953
H 2.454084 0.754765 0.730948
H 0.027037 -0.092681 2.547698
H 1.444282 -1.198166 1.926189
H -1.259876 1.052609 1.057701
H -2.658420 0.754345 -0.798012
H 1.184671 1.926616 1.458025
H -1.751424 -0.710813 -2.731280