21
H12 C6 N2 O1
C 1.812230 -2.078196 0.687335
C 0.890063 0.224758 0.485812
C -0.086895 1.352444 0.293704
N 0.156528 0.887179 1.659297
C -1.171787 1.754970 -1.929777
C -1.272699 1.140855 -0.529629
O -0.549119 -1.621926 0.932647
C 0.637506 -1.227113 0.286865
N -2.243683 0.412864 -0.154018
H 2.785855 -1.891322 0.101205
H 0.390208 -1.351584 -0.741255
H -1.260478 2.893025 -1.867594
H 0.331238 2.352473 0.171560
H -2.846117 0.017786 -0.874661
H -0.564053 0.293637 1.991195
H -0.293545 1.576737 -2.467946
H 1.978843 0.515527 0.480159
H -0.379417 -1.607830 1.876825
H -1.992140 1.447767 -2.591718
H 2.079495 -1.901065 1.717999
H 1.597970 -3.190973 0.472024