22
H13 C7 N1 O1
C -1.223486 -0.429242 -1.052364
C 1.477182 1.203931 -0.457929
N 1.421611 -0.247009 -0.330318
C 1.456426 1.480317 1.015818
C -2.071299 -1.619257 -1.116486
C 0.803894 -1.218134 0.497291
C 0.297760 -0.926313 -0.880985
O 0.068206 -1.018462 1.508247
C 0.300388 1.682268 1.813323
H 0.176426 2.831764 1.936538
H -1.990625 -2.283320 -0.240206
H -1.912405 -2.273613 -1.987733
H 2.341907 1.779901 1.389485
H 0.411416 1.311086 2.813174
H 2.397769 1.525554 -0.864110
H 1.396266 -2.126509 0.585828
H -1.276852 0.229455 -1.945818
H 0.597142 1.561230 -1.036433
H -0.610986 1.270433 1.387582
H -3.150224 -1.291497 -1.147944
H 0.537936 -1.674389 -1.646432
H -1.448452 0.231808 -0.240563