19
H10 C5 N4
C -1.594843 -1.486231 -1.981842
C -0.156218 -0.317143 -0.798542
N -0.021075 0.165293 1.309832
C 1.722802 1.517589 2.216546
N 0.447000 0.320482 0.226675
N -1.252758 -1.126639 -0.710163
C 0.292355 1.056036 2.428400
C -0.360750 -1.069258 -2.943317
N 0.410358 -0.167315 -1.993627
H 2.041413 2.327567 3.031225
H -2.561296 -0.952392 -2.356679
H 0.152054 0.550590 3.328290
H 1.943734 2.105859 1.304172
H -0.625926 -0.489705 -3.753858
H 0.228967 -1.904047 -3.271063
H 2.461655 0.709401 2.195039
H -1.820939 -2.579291 -2.033933
H -0.429411 1.897311 2.324815
H -0.877087 -0.558122 1.478003