19
H10 C7 O2
O 0.241867 1.471232 -0.784766
C 1.136881 0.412372 -1.258434
C 0.165358 0.128057 1.790993
C -0.199805 0.195225 -0.694587
O -1.633830 0.337819 3.571909
C -1.865660 -0.242837 1.138649
C -1.206119 0.138214 2.469446
C 1.539785 -0.152544 -2.575188
C -0.454703 -0.424997 0.541285
H -2.573662 -1.126861 1.188284
H -0.929570 0.037717 -1.538860
H 1.787962 0.569442 -3.289572
H 2.394445 -0.827794 -2.435391
H -2.324783 0.689000 0.727062
H 1.995452 0.430299 -0.548686
H 0.703292 -0.852279 -2.958475
H 0.870635 -0.459794 2.344149
H 0.508157 1.207915 1.815640
H -0.155695 -1.530196 0.496528