22
H13 C7 N1 O1
C -0.336739 -0.600204 1.771124
C -0.151807 1.234718 -1.295354
C 0.429455 -0.741389 -0.738901
N 1.213249 0.517204 -1.074007
C -1.936698 -0.297219 1.759526
C -0.380865 -0.116294 -1.934624
C 2.160717 0.987921 -0.213369
O -1.845843 -0.727647 0.329384
C -0.528561 -1.171132 0.386018
H 2.968124 0.280012 -0.188376
H 1.183394 -1.564710 -0.912132
H -2.438401 -1.156191 2.399689
H 1.815344 1.150187 0.809629
H -0.672455 1.515189 -0.272005
H -0.465048 -2.245135 0.362200
H -0.228804 2.042455 -1.944439
H 0.208355 0.344986 1.783055
H -1.449964 -0.430982 -2.021876
H -0.008563 -1.230711 2.643832
H 0.117705 -0.376760 -2.912359
H 2.586848 1.951639 -0.563862
H -2.239433 0.634033 1.826845