18
H10 C6 O2
C -0.829636 -0.030069 -0.553609
C 0.511382 -0.329108 -1.255567
O -1.071318 1.372778 -0.623606
C 0.323531 0.260674 1.714748
C -0.820199 -0.446591 0.915961
C 1.697572 -0.028352 -0.368085
C 1.582327 0.299896 0.892569
O -1.882972 -0.684372 -1.212063
H -1.875418 1.521177 -1.124479
H 0.515493 -1.462284 -1.425823
H 0.530787 0.101159 -2.211442
H -1.768930 -0.305486 1.440290
H 2.528302 0.531951 1.530232
H 2.635875 0.055414 -0.913848
H 0.009481 1.275841 1.802990
H -1.816457 -0.454204 -2.228883
H -0.650260 -1.504181 0.917580
H 0.380437 -0.174257 2.703002