23
H14 C9
C 0.638560 -2.319979 1.508463
C -1.118615 2.070146 -1.965246
C 1.608663 -1.268555 2.115291
C -0.506717 0.448711 -0.815088
C 1.279659 -0.019186 1.564121
C -0.113294 1.837480 -0.802196
C 0.092687 -0.982909 1.147831
C 0.004835 -0.897457 -0.428996
C -1.615503 0.616343 -1.798150
H 0.199554 -2.951994 2.369879
H -0.706298 -1.664107 -0.821796
H 1.865210 0.419970 0.822130
H -0.809376 -0.633187 1.687034
H -0.489284 2.290691 -2.889622
H 0.936292 -1.010935 -0.822345
H -1.868894 2.887066 -1.877905
H 2.164645 -1.469042 2.877338
H 0.918782 1.966811 -0.915599
H -1.521603 -0.049342 -2.663674
H 0.902573 -2.989242 0.715304
H 1.158206 0.782011 2.257807
H -0.375689 2.347837 0.119152
H -2.644364 0.588869 -1.383739