25
H16 C8 O1
C -2.363741 -2.067306 -1.240942
C 2.035343 2.771021 -0.220399
C 0.139146 -0.160679 -0.085677
C -0.003312 -0.586968 1.408830
C -1.973652 -1.670525 0.083532
O -0.509587 0.566563 -1.138630
C 1.475841 0.314140 -0.007220
C 1.460213 1.764693 0.759874
C -0.470497 -1.465385 0.259086
H 1.953272 -1.092822 0.118212
H -3.424231 -2.215791 -1.306315
H 1.477138 2.868023 -1.194736
H 0.519782 2.132799 1.005823
H 0.728245 -0.978989 2.051024
H -1.857357 -2.986116 -1.573339
H 2.046422 1.653154 1.592678
H 1.947151 0.397037 -1.002441
H -2.460807 -0.743785 0.338327
H -0.774148 -0.156116 2.036443
H 2.104675 3.860326 0.261563
H 3.167656 2.465629 -0.482111
H -2.125163 -1.339276 -2.027285
H 0.162071 -2.299244 0.073791
H -0.929718 1.310397 -0.582876
H -2.324699 -2.340791 0.872772