20
H11 C7 N1 O1
C 2.317873 0.534232 -0.953357
C 0.864605 -1.509483 -1.332731
C -2.021979 0.030162 1.713453
O -0.635739 0.943262 -2.078860
C -0.938810 -0.743073 0.833574
C 1.251953 -0.433009 -0.417557
C -0.030302 0.298782 0.155693
N 0.572860 -2.363660 -2.068215
C -0.772214 1.129038 -0.942251
H 2.525651 1.260137 -0.134825
H 1.625582 -0.925074 0.454617
H -1.482134 -1.308661 0.079945
H 3.170511 0.022125 -1.284567
H 0.354836 1.032607 0.930936
H -2.745303 -0.768902 2.143347
H 1.881637 1.133706 -1.759734
H -1.363816 1.892076 -0.522894
H -1.502849 0.530097 2.562296
H -2.620545 0.654229 1.173607
H -0.451809 -1.408568 1.447517