18
H9 C5 N1 O3
C -0.247554 -0.118463 0.414731
O -1.059676 0.208252 1.302607
C 0.495898 2.334962 0.461746
C 0.667618 0.849914 -0.132606
C -0.148398 -1.491384 -0.135083
N -1.250009 -1.934625 -0.935956
C -0.963691 -2.539080 0.382421
O 1.354915 3.152772 -0.234062
O 1.070151 -1.873982 -0.681059
H -1.629078 -2.300806 1.179911
H -2.017977 -1.227493 -0.937166
H 0.583311 2.270128 1.479884
H 0.544229 0.902989 -1.312079
H -0.547561 2.583734 0.267869
H 0.845064 -1.978275 -1.630329
H 1.187832 4.095831 0.189974
H 1.719672 0.641245 0.009180
H -0.604741 -3.575733 0.310034