15
H7 C5 N1 O2
N -2.737685 -0.042346 0.130041
C 0.233529 -0.868399 -1.977488
O 1.014641 -1.305069 -2.837021
C -1.611712 0.136222 0.112832
C -0.103784 0.340561 0.263711
C 0.590206 -0.807092 -0.532124
O 0.231397 1.522439 -0.437946
C 0.244719 0.404895 1.720558
H -0.026248 -0.510735 2.213261
H -0.193609 1.227645 2.204357
H 1.579020 -0.701127 -0.322067
H 1.352916 0.593102 1.726825
H 0.284236 -1.761791 0.019157
H -0.729354 -0.502518 -2.273978
H -0.128281 2.274211 -0.010120