20
H11 C6 N1 O2
C 1.695276 0.804354 0.364807
C 2.178354 0.838698 1.815295
O 1.207288 -0.506384 0.157220
C -2.535109 -0.336727 0.163348
C -1.521465 0.727688 0.374706
N -1.574229 0.045779 -0.894135
C -0.796992 -1.041712 -1.299539
C 0.837246 -0.831513 -1.096220
O 2.555333 1.917584 2.332990
H -0.988244 -1.909194 -0.686761
H -3.534147 -0.145520 0.032913
H -2.297215 -1.340621 0.746864
H -1.836743 1.757084 0.386356
H 0.978706 1.547664 0.188948
H -0.921325 -1.239585 -2.339298
H 2.427035 -0.123448 2.246676
H 2.496687 1.022448 -0.284316
H 1.297577 -1.709641 -1.390051
H 1.040953 0.062615 -1.848345
H -0.708974 0.460447 1.028497