20
H11 C6 N1 O2
O 1.682789 0.832889 0.737767
C 0.686319 -0.225386 0.275569
C 1.257740 -0.713859 -1.033781
C -1.068016 1.813132 0.021597
C 0.309304 -1.212695 1.421593
C 0.079713 -0.000710 -1.716442
N -1.135436 -0.588985 -1.047110
C -0.392440 0.559965 -0.371671
O -0.856929 -0.865424 2.049849
H 1.113818 -1.246377 2.224325
H -1.891367 -0.207893 -1.618815
H -0.353284 2.641037 0.072883
H -1.903236 2.120713 -0.705036
H 0.023063 0.477118 -2.713178
H 0.273540 -2.181427 0.918694
H -1.620697 -1.115494 1.354714
H 2.167257 -0.407439 -1.363755
H 1.916385 0.559410 1.602723
H 1.167894 -1.815571 -1.140581
H -1.456408 1.576959 1.030645