18
H9 C6 N1 O2
C -1.419093 0.037837 -0.440849
C -1.818551 -1.018288 -1.120443
N 0.245372 -2.535095 -0.736435
C -0.791175 -0.101124 0.863714
O -1.297052 -2.313874 -0.858739
C 1.272536 2.057900 0.092075
C 0.672835 -0.256865 0.459315
C 0.942314 -1.588579 -0.117991
O 1.238170 0.640767 -0.378776
H 0.256449 2.463381 0.027042
H 1.321303 -0.201967 1.440618
H 1.947152 -1.894406 -0.088991
H -1.119394 -0.920495 1.437149
H -1.506603 1.058494 -0.885586
H -2.540713 -1.107831 -1.766009
H 1.575451 2.184699 1.166856
H 1.938979 2.565334 -0.546630
H -0.917982 0.930097 1.453704