19
H10 C8 O1
C 0.174165 0.332199 0.768033
C -0.314556 -0.646041 -0.842847
C -0.542155 0.493435 2.211594
C -0.598267 0.676003 -0.415720
C 0.328727 -1.226657 -2.120708
C 1.616040 0.717982 0.858577
C -1.740044 -0.228969 -0.652949
O 0.157871 -1.108636 0.335368
C 2.783638 1.115219 0.788722
H 0.235511 -2.249504 -2.195637
H 0.076814 -0.104307 2.983401
H -0.461767 1.578621 2.523594
H 1.382604 -0.989845 -2.076422
H -2.258723 -0.713321 0.236329
H -0.552739 1.638151 -0.911847
H -0.176247 -0.783049 -2.999538
H 3.715221 1.472265 0.765400
H -2.331494 -0.047912 -1.498303
H -1.494624 0.074381 2.242934