18
H9 C7 N1 O1
C 0.365289 -1.169611 -0.435332
C 0.032019 0.086823 -1.097803
C -1.441800 0.174520 0.481425
C 2.027942 1.400677 0.075855
C -1.308340 -0.931772 1.427883
C -0.960792 -1.681415 0.044516
N -1.580519 -0.457834 -0.791737
C 0.780697 1.352430 -0.763424
O 0.813274 1.986378 0.463157
H 0.060509 -0.110356 -2.133159
H 2.813312 2.133067 -0.100878
H -1.276367 -2.664733 -0.209058
H -2.300789 -1.254672 1.796163
H 1.288997 -1.699117 -0.473310
H -0.618987 -0.857051 2.207486
H 0.786105 2.052206 -1.654598
H 2.290554 0.493051 0.510566
H -1.771119 1.147424 0.652272