13
H4 C5 N1 O2 F1
O 0.281910 1.713457 -0.042560
N 1.376281 0.792432 -0.346452
C 1.609359 -1.664385 -0.346755
C -2.033504 1.812419 0.422585
C -0.828854 0.993236 0.154896
O -3.217867 1.420345 0.475764
C 0.916167 -0.378690 -0.165776
F -1.444681 -1.291162 0.261947
C -0.553466 -0.321370 0.126085
H 2.702749 -1.433828 -0.547595
H -1.909431 2.919745 0.550183
H 1.776923 -2.259696 0.593048
H 1.324416 -2.302481 -1.135378