23
H14 C7 O2
C -0.780237 -0.051986 1.925206
C -0.601135 0.789797 -2.706959
C -1.111293 -0.167982 0.417697
C 1.458181 -0.480772 -1.820976
C -0.023118 -0.107723 -1.655610
O -0.318981 0.536986 -0.427076
C 0.408907 0.747866 2.329914
C -0.606724 -1.333299 1.210009
O 0.755236 0.382722 3.658283
H -0.045402 1.733558 -2.576576
H -1.281711 -2.108516 1.399545
H -0.683977 -1.059842 -1.665355
H -1.623369 0.968185 -2.578806
H 0.108004 1.914758 2.313015
H -0.333542 0.368398 -3.729922
H -2.128228 -0.247799 0.146876
H 1.976943 0.323233 -1.638675
H 1.183528 0.588794 1.614493
H 0.447242 -1.635922 1.055746
H 1.465524 1.024236 3.872124
H 1.625271 -1.035156 -2.724417
H -1.626927 0.042744 2.530282
H 1.735848 -1.192255 -0.948792