17
H8 C5 N2 O2
C 0.875515 0.248093 0.488952
C -1.405805 -0.006356 1.760147
N 0.332745 1.495711 0.996381
C 0.441212 -0.466390 -0.825146
O 1.475329 -0.667382 -1.602407
N -2.563110 -0.231525 1.759071
C -0.033348 0.264907 1.633636
C -0.511724 0.402614 -1.609019
O -0.070829 -1.770373 -0.363802
H -0.025050 1.276077 -1.841100
H 1.457439 -1.685577 -1.611697
H -0.959008 -1.614261 -0.086369
H -0.999882 -0.164869 -2.392613
H 0.551267 -0.043435 2.617757
H 0.898680 2.052082 1.485488
H 1.913423 0.136889 0.552523
H -1.376860 0.773801 -0.961799