18
H9 C5 N3 O1
C -0.229750 -0.569486 1.627403
N -0.586786 -0.972249 2.878512
C 1.779310 -0.263442 -1.350510
N 0.781331 -0.159422 -0.418750
C -0.960592 1.145952 -1.579894
C -1.205617 0.239387 0.702878
C 0.858368 -0.782513 0.887686
O -2.322771 0.680399 0.949884
N -0.415549 0.605928 -0.426446
H -1.108546 -0.234059 3.382280
H -1.084445 -1.792818 2.992807
H 2.685585 0.255192 -1.044254
H -0.448588 2.195045 -1.730336
H -0.853781 0.583281 -2.582386
H 1.689265 -1.267117 1.078897
H -2.043006 1.317370 -1.404000
H 1.428266 0.274252 -2.356325
H 2.037306 -1.255718 -1.607481