17
H8 C5 N2 O2
C -0.372522 0.294034 -0.109465
N 0.175007 -2.815544 2.461393
C 1.814573 -2.416898 1.238724
O -0.247925 -1.820585 1.768435
O 1.434455 -3.277153 2.186458
C -1.268276 2.376696 -1.246683
N 0.734089 -0.679045 -0.054063
C -0.156137 1.300285 -1.226852
C 0.794836 -1.477402 0.860484
H -1.247369 2.946847 -0.355476
H -0.533724 0.838496 0.819924
H -2.244224 1.950144 -1.364413
H 2.787779 -2.596288 0.771641
H -1.263853 -0.244259 -0.338431
H 0.818469 1.796494 -1.156811
H -1.121120 3.091560 -2.114095
H -0.104056 0.732636 -2.140773