19
H10 C6 N2 O1
C -1.412137 1.164040 -0.766064
C -0.794655 -0.093825 -0.155583
N 0.443518 -1.131626 1.542150
C 0.301047 0.397428 -2.170488
O 1.123788 0.380769 -3.053776
N 0.395248 -0.224154 -0.955356
C 1.777859 -1.045799 1.885662
C -0.388985 -0.053536 1.354410
C -1.032369 0.879559 -2.199035
H -0.937937 2.099821 -0.324234
H 0.944834 -1.072714 -0.853530
H 2.473252 -1.154862 1.004411
H -2.484685 1.236319 -0.640948
H 0.073236 0.857076 1.521727
H -1.693393 0.908985 -2.935172
H -1.263121 -0.221908 2.000200
H -1.565154 -0.932914 -0.278523
H 2.025839 -0.093790 2.405349
H 2.013809 -1.898883 2.618804