15
H6 C4 N4 O1
N -1.136575 1.872091 0.841168
C 0.997803 -1.518075 0.264671
C -0.181512 -0.888010 -1.355275
O 0.531740 -0.266785 0.628463
C -0.860884 1.439687 -0.418645
N -1.115223 2.046276 -1.544823
C -0.248634 0.098077 -0.501019
N 1.797863 -2.205915 1.173452
N 0.646139 -1.890806 -0.819982
H -1.903326 2.479792 0.962492
H -0.731565 -0.939645 -2.244211
H 2.279626 -1.626174 1.836510
H -0.778786 1.481389 1.717606
H -1.611877 2.867046 -1.330618
H 2.315227 -2.948935 0.790211