24
H15 C7 N1 O1
C 1.091600 1.224953 0.351759
C 1.643332 0.320274 1.534084
C 0.344099 0.396831 -0.752255
C -2.696318 -1.917184 -0.896029
C 2.196965 1.979544 -0.171027
N 0.845371 0.095551 2.569526
C -1.641568 -1.078153 -1.350785
C -0.677753 -0.484716 -0.231964
O 2.726476 -0.311613 1.478430
H -3.450668 -1.365125 -0.297097
H -2.454520 -2.759197 -0.249420
H -1.324982 -0.038949 0.438614
H 2.975189 1.279485 -0.709619
H -3.367328 -2.364193 -1.662645
H 2.768776 2.539136 0.580918
H -0.117447 0.532735 2.510800
H 0.354815 1.833613 0.861114
H -0.086514 1.192908 -1.396078
H 1.284872 -0.389382 3.419062
H -0.293099 -1.418089 0.276636
H 1.844799 2.817638 -0.878219
H -1.982414 -0.232640 -1.980768
H 1.027209 -0.176418 -1.385235
H -1.010958 -1.677009 -2.059794