15
H6 C7 O2
O -2.310459 0.042148 1.062194
C -0.496473 0.329186 -0.277481
C 1.589018 -0.943783 0.674772
C -1.462665 -0.519029 0.679418
O -0.620083 -1.403268 -2.150250
C -0.136869 -0.776120 -1.326562
C -0.600529 1.799556 -0.524013
C 2.150075 -1.388534 1.664840
C 0.955600 -0.342761 -0.423888
H 1.602828 0.214569 -1.019424
H -1.119576 -1.497513 0.878686
H -0.113720 2.122984 -1.343493
H -1.667352 1.911028 -0.708583
H 2.570504 -1.854463 2.522851
H -0.340304 2.305988 0.290927