21
H12 C6 O3
C -0.218193 1.604079 -0.427750
C 0.302809 0.348157 0.217967
O -1.760187 -0.134771 1.483973
C 1.082471 -0.705537 -0.477445
C -1.511105 1.005302 -0.741628
C 1.039021 -2.002677 0.326199
C -1.168782 -0.183380 0.165785
O 2.458217 -0.308300 -0.638997
O -0.243801 2.641298 0.565596
H -2.384887 1.451225 -0.532302
H 1.731658 -2.806785 -0.009037
H 0.380662 1.987409 -1.269036
H -1.106151 2.710472 0.963775
H 0.747604 -0.731399 -1.576753
H -1.557409 0.682898 -1.727440
H 0.821616 0.484143 1.150953
H 0.012727 -2.425164 0.413928
H 2.804246 -1.163072 -0.980834
H -1.370402 -1.157900 -0.227540
H 1.338451 -1.834499 1.363941
H -1.398557 0.538542 1.956645