20
H11 C6 N3
C -0.170833 -1.813620 0.349154
C 0.737868 -0.807019 2.147680
C 0.540850 0.198355 1.340791
N 0.732124 1.551054 1.339886
C -0.415814 0.232534 -1.038583
C 0.620594 0.475709 -2.060904
N 0.216749 -2.090383 1.591648
C -1.745826 0.857308 -1.006648
N -0.051908 -0.445570 0.096347
H 0.351638 -2.980765 1.980909
H 1.029257 -0.853838 3.156032
H -0.482270 -2.521087 -0.411628
H 0.089885 0.558413 -3.085189
H -1.784578 1.710014 -0.371923
H 1.272808 1.901609 0.495150
H 1.103849 1.847177 2.201616
H 1.310664 -0.390025 -2.185001
H 1.219583 1.341055 -1.875290
H -2.091559 1.156541 -2.007478
H -2.483101 0.072531 -0.656602