17
H8 C5 N2 O2
C 0.387627 -1.832763 0.449517
C -1.107736 2.343844 -0.846308
O -1.287904 2.429090 -2.076894
N -0.361909 -1.476865 -0.417955
C 1.587216 -2.389593 0.786851
N 0.267527 1.289435 0.776563
C -0.865942 0.963812 -0.107183
C -0.518307 -0.223821 -1.072792
O 0.643910 -2.248153 1.729168
H -1.792008 0.877316 0.375917
H 0.365526 0.161566 -1.588832
H -1.363508 -0.305403 -1.794418
H 1.828956 -3.339526 0.299092
H 2.574122 -1.837054 1.077104
H -0.106914 1.761462 1.639620
H 0.890410 0.612407 0.954467
H -1.141057 3.214249 -0.183923