17
H8 C6 O3
O 0.977035 -2.091342 -0.752205
C 0.241542 -0.960915 -1.314782
C 1.661746 -0.174391 0.588991
C 0.924351 -1.499231 0.551974
C -0.928626 1.865378 -0.245201
O -2.101351 -0.030297 0.589875
C -0.852055 0.568546 0.646049
C 0.225521 -0.172412 0.103699
O -1.962032 2.268825 -0.758617
H 2.523482 -0.142145 -0.117253
H -2.631663 0.443411 0.117200
H 0.017346 2.538124 -0.260943
H -0.760815 -1.209932 -1.629834
H 1.799511 0.337561 1.533382
H 0.648312 -2.102916 1.379025
H 0.775403 -0.497423 -2.106398
H -0.557684 0.859146 1.675055