15
H6 C5 N2 O2
C -0.322143 1.862755 1.266957
O 0.221882 -1.565017 -1.940319
C 0.125585 -0.356754 0.087536
C 0.425791 -1.550783 2.115424
O 0.397308 -1.533933 0.727028
N -0.350271 0.687212 -3.385199
C -0.250023 0.746409 -2.143153
C -0.195561 0.825911 0.713880
N 0.018721 -0.439917 -1.391898
H -0.521807 -1.242273 2.542934
H -0.478001 2.766944 1.844864
H -0.435783 1.603552 -1.516858
H 0.679771 -2.493733 2.331255
H -0.510093 1.609628 -3.802112
H 1.194610 -0.919988 2.549695