18
H10 C6 O2
O 0.271258 2.238197 0.216098
C 0.028439 -1.205771 1.427897
C -0.741313 0.153281 1.244559
C 0.881374 -0.202296 -1.848873
C 0.507920 0.898475 0.532782
O 0.749377 -1.337128 0.205043
C 0.267073 -0.209618 -0.482598
C -1.234576 -0.164718 -0.186694
H 1.938521 -0.131960 -1.843830
H -0.602744 -2.113127 1.597476
H 0.743715 -1.223233 2.282845
H 1.425138 0.884761 1.104281
H -1.809962 -0.940647 -0.435752
H -1.741728 0.715680 -0.619748
H -1.289622 0.519024 2.040126
H -0.535009 2.347176 -0.308244
H 0.564214 0.791818 -2.427880
H 0.577924 -1.019913 -2.497493