18
H9 C6 N3
C -0.367514 -0.214583 0.610234
C -2.000223 -1.717056 0.091018
C 0.957062 0.439682 0.344835
N -1.292496 -0.249495 1.547862
C 1.198209 -0.162636 -1.114010
C -0.712404 -1.163194 -0.362353
N -2.358481 -1.128266 1.212976
C 0.892956 1.907338 0.365143
N 0.259511 -1.305859 -1.317090
H 0.950264 0.655091 -1.909123
H 0.753065 2.246171 1.400478
H 1.676984 0.049101 0.943747
H -1.394151 0.289902 2.432689
H 2.215068 -0.507130 -1.333812
H -0.084070 -1.384335 -2.301543
H -2.611851 -2.435342 -0.394260
H 0.090898 2.324320 -0.216073
H 1.827183 2.356309 -0.000691