18
H9 C7 N1 O1
O 2.161314 0.376806 -1.689046
C 1.104426 0.376655 -1.281790
C -1.183743 -0.018237 -1.065242
C -0.844323 0.993393 0.014670
C 0.660961 1.005245 0.088706
C 1.089940 0.047387 1.189338
C -0.063668 -1.122224 1.107805
N 0.008401 -0.220624 -1.775468
C -1.243689 -0.397776 0.427312
H -2.164004 0.016569 -1.567077
H 0.104178 -0.981805 -2.431914
H -2.301639 -0.552563 0.848874
H 1.032538 0.506068 2.164615
H 0.283840 -1.948231 0.459323
H 2.071666 -0.398289 1.069029
H 1.048368 2.004663 0.198311
H -1.472176 1.842062 0.188694
H -0.292371 -1.529115 2.053843