18
H9 C6 N3
C 0.090002 -0.697676 0.238492
C 2.487265 -0.541025 0.201723
C 0.668646 1.691478 -0.646591
C -1.122815 -1.501390 0.568134
C -2.399912 -1.096782 0.358475
N -1.576551 1.080196 -0.305971
C -0.345197 0.714705 -0.200145
N -2.640733 0.274759 -0.038538
N 1.207257 -1.122334 0.547590
H 3.232375 -1.172716 0.619189
H 1.350164 1.340055 -1.455832
H 2.655020 -0.417199 -0.843613
H -0.934770 -2.559837 0.865582
H 2.649211 0.450537 0.728879
H -3.540680 0.596998 -0.258946
H 0.154682 2.556006 -1.070366
H 1.335611 2.070651 0.171405
H -3.269548 -1.666408 0.520501