21
H12 C7 O2
C -0.569580 0.450126 -1.409480
O -0.983882 -1.785901 -0.361618
C 1.923454 -0.162396 3.661211
C -0.908262 -0.445236 -0.162351
C 1.209261 -0.571217 2.837276
O 0.123229 -0.170341 0.755161
C -0.550364 1.917110 -1.098371
C 0.725877 -0.055961 -2.071300
C 0.123121 -1.016789 1.954933
H 1.592817 0.175358 -1.432931
H -0.446053 2.540795 -2.007467
H 0.331895 -2.015599 1.626621
H -1.899511 -0.034929 0.353410
H 2.717436 0.140261 4.397328
H -1.496371 -1.947747 -1.134930
H -0.863788 -1.021632 2.390081
H 0.283347 2.221281 -0.404693
H 0.804032 0.416413 -3.038467
H 0.788987 -1.135755 -2.194794
H -1.450008 0.262939 -2.044823
H -1.455631 2.239247 -0.614811