15
H6 C5 N2 O2
C 0.989313 -1.022957 1.653709
N 2.502740 -0.372818 -1.440291
N 0.410403 0.259559 -0.713876
C -2.076860 1.198608 -1.124750
C -0.531910 0.060380 0.248589
C -0.228500 -0.585280 1.499477
O -1.751117 0.481355 0.078470
C 1.560599 -0.369859 -0.546905
O 1.919222 -0.907476 0.676238
H 1.389471 -1.468991 2.543000
H -1.905125 0.606500 -1.974270
H -3.109774 1.449982 -0.951969
H -1.010537 -0.648738 2.292054
H 3.347159 -0.834702 -1.122151
H -1.505058 2.154412 -1.117334