21
H12 C7 O2
C -0.570155 1.764799 -0.405393
C 2.237010 -2.415384 0.063066
C -0.441950 0.319260 0.163855
O -2.628852 1.094321 -0.478806
C -1.332992 0.663908 -1.030912
O -2.141292 2.674487 1.330567
C 0.884153 -1.761645 0.285229
C 0.929591 -0.298345 -0.072110
C -1.969795 2.333907 0.002238
H 3.047332 -2.009878 0.614857
H -1.285012 0.188352 -1.998514
H 0.554239 -1.941285 1.275592
H 1.320432 -0.110185 -1.022586
H 2.617809 -2.409939 -0.971623
H -2.174918 1.913646 1.910729
H -0.963676 0.058779 1.083979
H 2.238286 -3.510361 0.336008
H 1.608141 0.236502 0.667915
H -2.325981 3.137003 -0.615046
H 0.147299 -2.303904 -0.353248
H 0.250330 2.375973 -0.785794