16
H7 C6 N1 O2
O -2.605652 -1.407480 -0.975899
C 2.322487 -0.141764 -1.039798
C -0.176412 -0.380104 -0.575757
C 1.004061 0.096410 -0.279498
C -1.010578 0.787149 1.433037
C -1.361522 -0.109836 0.321232
N -2.525043 -0.597654 0.145131
C 0.205864 1.150156 1.619539
O 1.267445 0.927141 0.862809
H 2.734702 0.797607 -1.362113
H -1.895116 1.063279 2.087053
H 2.182837 -0.795981 -1.880638
H -0.258823 -1.049461 -1.400989
H -3.475296 -1.640072 -1.027876
H 3.116848 -0.520663 -0.359015
H 0.474210 1.821254 2.432806