18
H9 C6 N3
C 0.323227 0.146158 0.412456
N 0.264078 0.197650 1.887259
C -0.752613 -0.552955 2.685081
N 0.094522 1.355647 -0.137187
C -0.344283 -0.956848 0.036000
C -0.213755 -0.149560 -2.276876
C 1.229783 0.135256 -1.715088
C 0.188130 1.186744 -1.555932
N 1.624578 -0.086347 -0.249998
H -0.849148 -0.796396 -2.115746
H -1.852671 -0.326934 2.409445
H -0.636742 -0.203452 3.731090
H -0.882107 -1.859994 0.038981
H 0.055087 2.143065 -2.148072
H -0.108805 0.081795 -3.375968
H -0.575200 -1.581447 2.560842
H 0.359131 1.210961 2.141643
H 2.076777 0.056684 -2.327939