19
H10 C7 O2
O 2.690651 0.201226 1.279779
C -0.803699 -1.205998 0.313933
C -0.045136 -0.109690 -1.688305
C -1.327705 -0.090227 -0.685022
C 1.328668 0.368970 0.957468
C 0.703476 -0.906180 0.316497
O 1.064599 -0.876400 -1.052476
C -1.656948 1.135859 0.026415
C -1.847962 2.152727 0.686163
H -1.203263 -1.126150 1.333382
H 0.301354 0.862909 -1.992462
H -2.136659 -0.439056 -1.269259
H -2.151035 3.055382 1.123133
H 3.091189 -0.186708 0.425750
H -0.309081 -0.743580 -2.627455
H 1.257208 1.246149 0.251540
H -0.944721 -2.163961 -0.073135
H 1.245260 -1.777032 0.807095
H 0.743813 0.601765 1.866931