15
H6 C6 N2 O1
O 2.008969 -0.355605 -1.078651
C 0.293068 -1.492352 0.368442
C 0.897059 -0.358934 -0.361057
C -1.499773 0.060151 0.878063
N -1.035250 1.123289 0.082238
C 1.086260 1.597231 -1.260033
C 0.216954 0.819543 -0.443961
C -0.959728 -1.107850 1.043394
N 2.189761 0.854259 -1.577191
H 1.040575 -1.858661 1.179280
H -1.531192 -1.884201 1.616823
H -1.396183 2.004773 0.055521
H -2.522077 0.346454 1.392141
H 1.051111 2.696070 -1.623265
H 0.160438 -2.444182 -0.271759