21
H12 C8 O1
C 0.126138 -0.957316 0.795615
C -0.042717 -1.525513 2.207681
C -1.347845 1.104335 1.134005
C -0.041783 0.422808 -1.004323
C -0.420556 1.521436 -1.906181
C -0.447929 0.251517 0.307097
O 2.272768 -0.128096 -1.725173
C 0.993023 -1.521453 -0.169611
C 0.944898 -0.596576 -1.349679
H -2.234337 0.646366 1.509487
H 0.446659 -2.465766 2.304543
H -1.139889 -1.755510 2.311578
H 1.528300 -2.383151 -0.104816
H -1.029724 2.300985 -1.469796
H 0.618735 -1.131687 -2.260354
H -1.020427 1.182763 -2.792530
H 0.489297 1.963577 -2.357900
H 2.510969 0.445386 -0.990877
H -1.647721 1.960847 0.545137
H -0.833304 1.532373 2.025221
H 0.275408 -0.867339 2.990862