17
H8 C7 N2
N 2.825335 -0.097979 2.459943
C 2.067101 -0.208219 1.593849
C -0.127807 0.279827 0.493866
C -2.164675 0.970847 -0.786137
N 1.868557 -0.701986 -0.772918
C 1.169456 -0.425067 0.462273
C -0.744795 0.922463 -0.814902
C -0.144375 -1.183096 0.687743
C -3.317639 1.036725 -0.778819
H 2.311805 0.097892 -1.183845
H 2.308684 -1.547314 -0.839118
H -0.457756 -1.822483 -0.112528
H -0.259832 1.921666 -0.921963
H -0.323755 -1.603923 1.671107
H -0.293564 0.349696 -1.666757
H -4.412779 1.097350 -0.829905
H -0.303944 0.913591 1.338098