24
H15 C7 N1 O1
C 0.054531 -0.327108 1.203551
C 0.123513 0.688788 2.425094
C 0.001194 -0.750993 -0.819028
C -0.597848 0.286050 -0.046009
C 1.439030 -0.845657 -0.677088
O -2.057854 0.329251 0.062697
N 1.392008 -0.856980 0.844206
C -0.676585 -1.595205 -1.846889
C -0.178858 1.769746 -0.646995
H 0.949059 1.893122 -0.383255
H 1.907843 -1.740737 -0.996446
H 0.489991 0.249061 3.291315
H -1.216197 2.028161 -1.153528
H 0.235991 1.524779 -1.828974
H -1.676738 -1.890757 -1.491004
H -0.860342 1.015007 2.661649
H 2.029178 -0.078548 -1.127558
H -0.561873 -1.210901 1.611400
H -0.166076 -2.533759 -2.088122
H -2.347986 -0.494368 0.273335
H -0.415906 2.431522 0.101566
H -0.784729 -1.077768 -2.787857
H 0.746822 1.498540 2.165942
H 2.171847 -0.311237 1.251990