21
H12 C7 O2
C 1.764011 0.664969 2.088678
C 1.595696 0.272284 -0.515265
O -1.228343 0.334929 -1.291497
C -2.640135 0.007762 -1.423811
C -0.629549 -0.698814 -0.538595
C -0.467867 -0.158616 0.976276
C 0.866903 0.633229 0.864513
C 0.806774 -0.838372 -0.986900
O 1.347915 0.392462 3.239325
H 1.120371 -1.527200 -1.740386
H -2.834373 -0.953001 -1.854768
H 0.572325 1.759288 0.788428
H -0.321210 -1.044793 1.627044
H -1.117272 -1.651219 -0.572356
H 2.150400 -1.091509 0.587850
H -3.111643 0.089263 -0.419399
H 1.108598 1.075679 -1.383054
H 2.783032 1.096462 1.945487
H -1.263571 0.391325 1.322871
H -3.093370 0.797998 -2.101941
H 2.591310 0.447868 -0.612508