17
H8 C5 N2 O2
C -0.132381 -0.657028 0.975658
C -1.294624 -0.605068 0.020628
O 1.244561 0.243307 -0.840272
C 0.103960 0.519000 -1.426734
O -0.045585 -1.754433 1.814431
C 0.423435 0.642193 1.463389
N -1.032697 0.164182 -1.093646
C 1.168129 -0.231899 0.561848
N 0.342031 1.366457 -2.524133
H 2.055445 -0.774609 0.798517
H -1.522872 -1.736750 -0.286275
H 0.839447 0.570598 2.527209
H -0.774801 -1.628284 2.443767
H -0.418383 1.298437 -3.213431
H 0.033182 1.580131 1.191913
H -2.238003 -0.248607 0.539027
H 1.249140 1.252340 -2.951858