18
H9 C6 N3
C 0.037594 -0.290889 -1.507969
N -0.772027 0.839448 -1.211671
C -0.275263 0.016070 0.794252
C -1.631399 2.056473 0.685147
N -0.954831 0.955085 0.065060
C 0.473543 -0.898835 -0.150958
C -0.109486 -2.258088 0.100215
N -0.384755 -3.340743 0.285972
C 1.988852 -0.848421 0.141434
H -2.179138 2.607387 -0.123986
H 0.866310 0.043277 -2.033285
H -0.538795 -1.012936 -2.131372
H 2.372337 0.159604 0.007120
H 2.476635 -1.482321 -0.603806
H -0.228081 0.024414 1.946268
H 2.214956 -1.162102 1.165544
H -0.952388 2.797785 1.173322
H -2.404076 1.794791 1.398725