16
H7 C5 N1 O3
C -0.818019 1.024318 0.058101
C 0.428359 0.005564 0.052476
C -0.355149 -1.868153 1.384596
O -1.716699 0.964009 0.787585
C -0.467706 2.016806 -0.992225
N 0.009769 -1.428946 0.013751
O 0.751040 1.626598 -1.671457
C 1.186199 0.437290 -1.248185
O 2.012101 -0.185477 -1.775452
H -0.328537 3.066790 -0.589376
H 1.144117 0.245252 0.869147
H -1.294810 2.158942 -1.685693
H -0.633181 -2.890167 1.294115
H -1.150027 -1.327286 1.756929
H 0.747421 -1.980665 -0.380513
H 0.485133 -1.864866 2.126198