14
H6 C6 O2
O 0.863440 0.739076 0.481220
C 0.294849 0.142044 1.657174
C 1.105750 1.319173 -1.817783
C -0.728838 -0.967905 1.430747
C -1.109958 -1.191149 0.015763
C -0.523673 -0.481892 -1.029432
C 0.441065 0.519146 -0.724094
O 1.883034 2.200240 -1.682973
H -1.102902 -1.473947 2.127847
H -1.872591 -1.912068 -0.163912
H 0.685451 1.002747 -2.772446
H 1.058078 -0.238550 2.264881
H -0.183346 0.949324 2.222923
H -0.810381 -0.606217 -2.009918