10
H3 C5 N1 O1
N -0.720535 -1.173977 -0.300309
C 1.921515 0.601906 -1.893282
C 1.108862 0.371499 -1.072792
C -0.214339 0.675391 1.070454
C -1.467206 -1.118809 0.759565
C 0.111170 -0.002551 -0.162518
O -1.206615 0.006377 1.612952
H 2.629450 0.882974 -2.596860
H -2.216614 -1.786976 1.077762
H 0.054313 1.544178 1.505040