16
H7 C7 N1 O1
O -0.775774 1.480182 -0.459735
C 0.194152 0.977687 -1.289396
C -1.728793 -2.366650 -0.578270
C -0.280344 0.312089 1.439016
C 1.061688 1.476447 -0.173430
C -0.839877 -1.665049 -0.066885
C 0.979886 0.010770 -0.606819
C 0.181344 -0.823124 0.501731
N 0.025011 1.617193 0.794007
H 0.249665 0.262548 2.344458
H 0.878254 -1.494078 0.993508
H 1.899125 2.234420 -0.166668
H 0.126977 1.133094 -2.357698
H 1.839506 -0.456555 -1.033799
H -1.338354 0.347929 1.635978
H -2.472444 -3.046904 -0.975991