12
H6 C6
C -0.612496 -0.014036 0.445489
C -2.218089 2.097752 0.218210
C 0.583041 -0.020678 -0.472143
C 2.174644 -2.105285 -0.199572
C 1.515133 -1.134035 -0.373226
C -1.475293 1.214006 0.408684
H 1.223774 0.955110 -0.227700
H -0.230038 -0.085579 1.519161
H 2.807889 -2.964361 -0.161199
H -2.835603 2.900217 0.090342
H 0.184190 0.131537 -1.490213
H -1.117153 -0.974652 0.242169