12
H6 C6
C -1.237017 1.723299 2.413320
C -1.466810 0.666321 0.024315
C -1.140340 1.236185 1.360697
C 1.874045 -1.438760 -1.283499
C -0.276723 -0.100646 -0.338107
C 0.728555 -0.704870 -0.813357
H -1.726661 1.346970 -0.673155
H 2.043545 -2.287670 -0.689928
H -2.313657 -0.109249 0.173976
H 2.778655 -0.742814 -1.221236
H 1.761979 -1.837602 -2.375099
H -1.025573 2.248812 3.422061