21
H12 C7 N2
C -0.646871 0.166533 0.922359
C 0.075020 2.454822 -0.484056
C 0.437945 1.138204 0.628084
C 0.711571 -0.627427 -0.935987
N 1.539018 0.102480 0.136049
C -0.942912 -0.757830 1.925676
N -1.875280 0.076004 1.600266
C 0.524506 -2.143392 -1.063142
C -0.640389 -0.031579 -0.472966
H 0.993557 -0.158114 -1.897809
H 2.267547 0.487006 -0.296444
H -0.212269 -2.370841 -1.808433
H 0.703715 2.341863 -1.352925
H -1.527930 0.034522 -1.174772
H 0.418966 3.316761 0.076630
H 1.400693 -2.569953 -1.421759
H -1.103545 -1.932697 1.755687
H -0.979321 2.424052 -0.715393
H 0.280730 -2.518203 -0.152447
H -0.357029 -0.710177 2.912230
H 0.876221 1.604150 1.540578