23
H14 C9
C 0.708280 0.579237 -0.774205
C 0.120459 -0.569142 1.504643
C -0.225942 -0.392886 0.031346
C -1.196267 -2.350728 -1.382468
C 1.397009 1.733170 0.053925
C -0.777638 -1.405226 -0.742612
C -1.164893 0.249253 1.020470
C -2.487773 -0.284499 1.477327
C 1.746646 -0.133375 -1.583734
H -1.191120 1.356996 0.989896
H -2.397288 -1.419318 1.618534
H 2.460439 0.485134 -2.183284
H 0.066734 1.112965 -1.520036
H 2.483900 -0.722356 -0.903801
H 1.295429 -0.864982 -2.271830
H -1.679968 -3.124485 -2.092713
H 0.890246 -0.085988 1.989161
H 0.926447 2.027168 0.971248
H -2.772737 0.155691 2.397756
H 2.401441 1.476992 0.286744
H -0.043717 -1.613044 1.845477
H 1.424777 2.641194 -0.540215
H -3.295160 -0.137426 0.694574