19
H10 C7 O2
O 0.791098 -1.462470 -1.172589
C 1.352494 0.110258 0.464490
C 0.814721 0.926778 1.510025
O -0.776965 -1.374646 0.670763
C -0.068396 -0.441564 -1.772474
C -0.806243 0.483026 -0.658324
C 0.328221 1.171165 0.109706
C -1.569549 -0.287507 0.286095
C 0.600055 -1.267113 0.302007
H 0.257482 0.541244 2.322202
H -0.812572 -0.932884 -2.313146
H 1.534865 1.825485 1.917474
H 2.400127 0.095512 0.172880
H 0.557904 0.188901 -2.412433
H 1.065694 -2.122426 0.803952
H -1.972072 0.298436 1.164824
H -2.485181 -0.706303 -0.156676
H 0.565969 2.160229 -0.207067
H -1.335930 1.156971 -1.211926