16
H7 C6 N1 O2
C 1.290428 -0.626443 0.012229
N -0.582602 0.360501 1.216284
C -0.931987 -0.892781 -0.886283
C -0.076634 1.360781 0.294635
C -1.216566 -0.666460 0.553337
O -1.327825 -1.601229 -1.781471
C 0.214486 -0.856551 1.099652
O -1.072758 2.102048 -0.473995
C 0.854266 0.607995 -0.584426
H -1.290759 1.734504 -1.250678
H 2.319001 -0.566775 0.537552
H 0.427304 -1.490497 2.045552
H 0.428996 2.131331 0.872424
H -2.114812 -1.021114 0.945040
H 1.255232 1.049637 -1.461802
H 1.442493 -1.450292 -0.763703