19
H10 C7 O2
C 2.278753 0.106212 -0.146008
C -1.201296 -0.129617 0.880508
C 0.851742 0.164404 -0.193208
C -2.170659 -0.942148 1.450154
C 0.064754 1.464495 -0.369802
O 0.038877 -0.669277 0.633392
C -1.202880 1.116044 0.380751
C 1.418249 -0.783148 -1.239150
O 0.566800 -0.728366 -2.386459
H 0.587334 2.366615 0.163468
H 2.895930 0.940991 -0.612052
H -0.341526 -0.909082 -2.200092
H -0.099286 1.715698 -1.421182
H -3.036222 -0.463680 1.762290
H -2.500221 -1.834823 0.824042
H -2.120441 1.814898 0.484940
H 1.901060 -1.657280 -1.233487
H 2.765368 -0.363648 0.710554
H -1.838131 -1.465429 2.449816