19
H10 C8 O1
O -1.037253 0.776955 -2.621679
C 1.049161 0.576738 -0.210586
C -0.588488 -1.699379 0.342174
C -0.728487 2.718726 -0.003257
C 0.952893 -0.148475 -1.560000
C 0.222791 -2.076811 1.538170
C -0.080143 1.390764 -0.515713
C -0.511945 0.460090 -1.535054
C 0.066902 -0.548727 -0.369372
H -1.180772 3.255949 -0.845142
H 0.200347 -1.291075 2.351186
H -0.165620 -3.104440 1.984307
H 0.112554 3.346960 0.396884
H 1.696309 -0.350856 -2.289838
H -1.548744 -1.410739 0.611665
H 1.835074 0.627943 0.527714
H -0.630597 -2.504538 -0.387118
H -1.371539 2.447926 0.747632
H 1.270674 -2.277466 1.402210