22
H14 C6 O2
C -0.010404 -1.770371 0.613346
C 1.940291 -0.417423 -0.363835
C -1.328361 2.624355 0.736179
C -0.433518 0.568036 -0.507114
C -0.366794 1.339917 0.733352
O -1.358727 -2.033845 0.553733
O 0.235494 -1.349089 -1.799381
C 0.438634 -0.698181 -0.505081
H 0.664925 -2.112425 -1.945380
H 0.521185 -2.709207 0.460658
H -0.549577 0.784416 1.618633
H -1.077132 3.221418 -0.085410
H -2.380865 2.254795 0.599614
H 0.685114 1.756788 0.949181
H -1.330673 3.213448 1.688703
H 2.560598 -1.243864 -0.677900
H 2.274052 -0.326389 0.692074
H -0.186812 1.109493 -1.363829
H 0.230448 -1.415183 1.542822
H -1.745566 -2.125050 -0.325249
H 2.242210 0.465984 -0.921196
H -1.470112 0.210956 -0.707332