17
H8 C7 O2
O -2.983168 -1.649343 -0.559364
C 1.928534 -0.018806 0.395573
C 1.588384 0.927676 -0.761496
C -1.673905 0.184378 0.397878
O 0.242893 0.663129 -1.260343
C -0.097222 0.153726 -0.020719
C 1.078880 1.097362 0.631813
C 0.759726 -1.062840 0.265177
C -2.387644 -0.553384 -0.657495
H 2.303169 1.341524 -1.504837
H -1.794667 -0.272544 1.337243
H 0.478502 -1.555239 1.213904
H 0.875656 -1.783036 -0.490242
H 2.917229 -0.208174 0.847759
H -1.970366 1.231107 0.477591
H 1.007055 1.997443 1.222226
H -2.391880 -0.081070 -1.661438