23
H14 C9
C -0.930849 -0.514391 1.985320
C -0.111306 0.630787 0.076555
C -1.315341 -0.085801 -0.491295
C 1.211044 0.029705 -0.757920
C 0.561710 0.021582 -2.000811
C 1.846483 -1.363185 -0.387668
C -1.010694 1.351333 -0.877018
C 0.062719 0.715558 1.640783
C -1.817868 0.267886 0.973220
H -1.967267 1.893765 -0.798506
H 1.202355 0.575605 -2.765088
H 0.023728 -0.734578 -2.448916
H -2.763507 0.582186 1.181160
H 1.925681 0.815812 -0.628318
H 2.264263 -1.824153 -1.263465
H -0.626500 -1.498389 1.742378
H 1.012008 0.556118 1.904539
H 1.082786 -2.033308 -0.062608
H 2.664295 -1.232794 0.327628
H -1.767252 -0.907515 -0.881087
H -1.278102 -0.484654 3.069951
H -0.478273 1.984908 -1.637680
H -0.317385 1.728925 2.130717