17
H8 C7 N2
N -0.600622 0.461526 1.912052
C 0.030629 -0.876209 2.081955
C -0.328538 0.000965 0.531115
N -1.100310 -1.110500 0.190075
C -0.199235 -2.443887 0.207112
C -0.037941 0.967321 -0.635345
C 0.289008 1.754286 -1.527009
C -0.894853 -1.841063 1.450155
C 0.640205 2.661603 -2.620452
H -1.689636 -2.306708 2.045852
H -0.347601 3.018269 -3.097927
H 1.169866 2.191937 -3.341929
H 0.880844 -1.113247 2.765659
H 0.132791 1.182737 2.208324
H -0.732058 -3.337083 -0.248614
H 1.176239 3.543609 -2.249925
H 0.797397 -2.296560 0.128139