19
H10 C7 N2
C -0.002383 -1.163302 -1.049166
C -0.426036 0.092350 -0.238075
C 0.020731 -0.863964 1.009769
C -0.510369 1.458124 -0.424830
N 1.524448 -1.042499 -0.881673
C -0.067130 2.516850 0.593219
C -0.032440 -2.129294 0.143644
C 1.266944 -1.522300 0.474080
N -1.715940 0.646184 -0.216054
H 2.031460 -1.667574 -1.390332
H -2.238384 0.666891 -1.080065
H -0.417698 -1.292684 -2.073586
H -0.330565 1.750371 -1.507302
H 2.086822 -1.909795 1.163882
H 1.162346 2.586633 0.535690
H -0.143684 -0.648401 2.061712
H -0.266491 2.137247 1.568165
H -0.522193 -3.077604 0.339715
H -0.433503 3.543607 0.385361