17
H10 C6 O1
C -1.233288 -2.063908 0.633455
C 0.991240 2.136496 -0.794010
C 0.320184 0.858406 -0.429188
C 0.738114 -0.562879 -0.556086
C -0.575699 -0.739906 0.174738
C -0.475424 0.605609 0.948229
O -0.995958 0.459428 -1.105775
H 1.622589 -0.927358 -0.001273
H -1.433024 -2.068059 1.773859
H 0.094151 0.581997 1.838269
H 0.725320 -0.992825 -1.540285
H 0.435277 3.047379 -0.629486
H 1.990036 2.244229 -0.263515
H 1.401725 2.070441 -1.822238
H -1.389753 1.066610 1.054581
H -2.231058 -2.114353 0.077717
H -0.635169 -2.914602 0.370582