20
H11 C6 N3
C -0.978383 -2.356563 -2.062441
C 0.305345 -0.827240 -0.896269
C 0.728367 0.449314 -0.142476
C 0.985063 -1.987762 -1.148185
C 0.265791 2.438330 1.342831
N 0.199539 -2.910546 -1.865702
C -0.233253 1.039699 0.878191
N -1.006300 -1.102263 -1.436892
N -0.340501 0.231225 2.107713
H 0.592285 3.053272 0.497353
H -1.790357 -0.485031 -1.426797
H -1.317592 1.127450 0.390136
H -0.557272 -0.719825 1.893184
H -1.785511 -2.765591 -2.588210
H 1.973828 -2.309913 -0.853945
H -0.418693 2.959821 2.008146
H 0.875908 1.164841 -0.981660
H 1.653393 0.231542 0.241985
H 1.185202 2.205920 1.976040
H -0.962052 0.669781 2.731408