21
H12 C7 N2
C 1.318766 -1.712260 1.684854
N -0.694863 2.141780 -1.021255
C -1.808868 1.493271 -1.695980
C -0.679320 1.602902 0.350669
C -0.542144 0.874642 -1.739863
C -0.248923 -1.058929 -0.082355
C 0.034862 0.425939 -0.434305
C 0.099051 -1.163187 1.353556
N 2.478622 -1.330707 1.000384
H -1.619692 1.342687 0.807830
H -2.093798 2.113106 -2.491085
H 3.037409 -2.121180 0.709539
H -0.105335 2.297680 0.925014
H -1.303414 -1.274823 -0.216507
H 0.333119 -1.799409 -0.773639
H -0.554193 -0.915807 2.062896
H -0.072722 0.645457 -2.681787
H 1.113802 0.669739 -0.285740
H 2.966096 -0.623836 1.459991
H -2.635673 1.100238 -1.120082
H 1.263539 -2.323132 2.520813