15
H6 C5 O4
O 2.265823 2.604413 -0.655286
C 1.552656 1.828957 0.001719
O 0.903322 0.396220 -1.720361
C -1.552288 -0.368833 0.620435
C -0.016534 -0.714953 -1.516063
C 0.858656 0.683052 -0.498610
O 0.732132 -0.286606 1.528664
C -0.058406 -0.413589 0.152114
O -0.791891 -1.556106 0.585881
H -1.701732 0.077772 1.605766
H -2.249054 -0.250758 -0.156282
H -0.995113 -0.607716 -2.150033
H 1.582008 1.954691 1.062567
H 0.577577 -1.070936 1.855100
H 0.441688 -1.675004 -1.778979