22
H13 C7 N1 O1
C -1.788018 0.517398 0.418283
C 0.863913 -1.246037 -0.438480
C 0.967709 -1.006548 1.904346
C -0.881251 2.140981 -1.353988
N 0.818169 -1.797668 0.784975
O -1.073390 -0.351088 -1.927342
C 0.564205 0.130513 -0.781472
C -0.816624 0.596635 -0.847221
C 2.170896 -1.458675 1.219968
H -0.348863 2.248925 -2.308846
H -1.932884 -0.111005 -2.321098
H 1.397824 0.842222 -0.910420
H 0.980542 -1.939699 -1.304920
H 2.763919 -0.745023 0.881691
H -1.918955 2.416121 -1.566294
H 0.775678 0.051060 2.019825
H -2.769285 0.629310 0.006506
H -1.524257 1.283089 1.061724
H 0.657347 -1.529731 2.886934
H -1.677770 -0.491744 0.895810
H -0.510647 2.740969 -0.606121
H 2.723372 -2.350646 1.512253