12
H3 C3 N4 O1 F1
N 0.564532 -0.884601 -0.386210
C 0.915339 1.616521 -0.659992
N 1.643637 -0.384783 -1.030670
C -0.365946 -0.343233 0.202715
O -0.828119 0.957269 0.366881
N 1.879568 0.971378 -1.288251
N -0.013336 1.966284 -0.210059
C -1.301494 -1.255648 1.091756
F -2.586679 -0.888601 1.058741
H -1.324020 -2.338081 0.753917
H -1.040404 -1.255080 2.128209
H 2.608171 1.088667 -1.890906