15
H6 C5 N2 O2
O -0.818623 2.974150 0.872026
C -1.200921 0.797552 0.425599
C -0.343724 1.889897 0.543583
O 0.882374 1.874866 0.200373
N 0.377147 -2.580207 -0.520144
C 1.475125 -0.377812 -0.320661
N 1.800957 0.836942 -0.009040
C 0.269767 -1.147714 -0.222922
C -0.962676 -0.610402 0.095874
H -1.809740 -1.278818 0.125077
H -0.020630 3.598601 0.937374
H -0.431103 -3.027243 -0.517899
H 2.375337 -0.993427 -0.509765
H -2.296280 0.923139 0.630150
H 1.100021 -2.825283 -1.275051