18
H9 C6 N1 O2
C -0.042087 -0.031242 -0.133440
C -0.549802 1.479033 -0.032353
C 1.274449 -0.833944 -0.307813
C -0.107380 0.107628 1.553469
C -0.843031 -0.684552 -1.443738
O -0.840401 1.250241 1.379766
C 0.193850 -1.911144 0.007623
O -0.806693 -2.068953 -1.013652
N 0.269801 2.537838 -0.274847
H -1.927761 -0.466040 -1.426419
H -0.435504 -0.470528 -2.355150
H -0.745536 -0.696174 2.121339
H 0.381827 -2.836950 0.606383
H -1.231421 1.940624 -0.618378
H 2.104645 -0.659687 0.365267
H -0.002655 3.441735 0.079231
H 0.796288 0.214278 2.047706
H 1.742078 -0.810064 -1.362023