14
H6 C8
C 0.265994 -0.064262 0.730780
C -3.120993 -0.424347 -2.860237
C 1.174329 0.069196 1.518009
C 3.374844 0.140081 2.441435
C -0.926801 0.430204 -1.429578
C -2.133340 -0.098574 -2.137705
C 2.008852 0.367185 2.419390
C -0.792412 -0.265586 -0.118110
H -3.951233 -0.807962 -3.381481
H -1.500519 -1.106197 -0.009341
H 4.499472 -0.070588 2.401615
H -1.083228 1.508166 -1.265849
H -0.002558 0.270769 -2.080614
H 1.752866 0.871020 3.371737