18
H10 C7 O1
C 0.123704 1.570036 1.291131
C -0.090217 -0.653937 0.422991
C -0.093908 1.123385 -1.470282
C 0.168532 -2.163652 0.050670
C 0.361714 0.082622 1.394146
C -0.987872 0.292467 -0.530258
C -0.578522 1.707476 -0.091714
O 1.233145 -1.979262 -0.929278
H -1.941855 -0.084507 -0.814753
H 0.846606 -0.493730 2.276801
H -1.224068 2.529164 -0.228720
H -0.576621 1.581462 -2.377640
H 1.644939 -2.926686 -0.894341
H -0.385884 1.983470 2.083715
H 0.454635 -2.654928 0.891571
H 1.108523 2.061511 1.320094
H -0.716472 -2.590333 -0.445015
H 0.901518 0.778974 -1.619417