20
H12 C6 O2
C 0.309689 1.356619 1.084040
C 2.070019 -0.938651 0.061793
C -2.137087 0.739828 -0.939796
O -0.030550 1.985562 2.033120
C -1.788208 0.063924 0.368242
C -0.354239 -0.011295 0.792270
C 0.551739 -0.691838 -0.300921
O 2.619266 -1.990036 -0.602753
H 1.130607 1.695545 0.385783
H -2.251652 -0.855051 0.434470
H 0.456084 -0.220074 -1.240978
H -3.181147 0.917579 -1.110211
H -0.256439 -0.613800 1.721001
H 2.139199 -1.092110 1.103012
H 2.607853 -0.014513 -0.154144
H 0.119557 -1.704133 -0.432591
H -1.603286 1.749123 -1.048834
H -1.769561 0.169222 -1.736108
H 3.553864 -2.048063 -0.413274
H -2.241610 0.694489 1.247491