21
H12 C8 O1
C 0.546001 2.625601 -0.526807
C 0.079915 -2.307442 0.586759
C -1.255393 -1.792320 0.473551
O -1.068023 3.488688 0.775189
C 0.465271 -0.016481 0.288419
C 0.138673 1.562552 0.587014
C -0.888452 2.470870 0.004945
C 0.642732 -2.247365 -0.774672
C -0.292813 -0.918652 -0.558284
H -1.694430 -1.340668 1.264575
H -0.917239 -0.382200 -1.246426
H 1.222478 -0.063646 -0.973273
H 0.245885 -2.782192 -1.563708
H 0.755656 2.251980 -1.531608
H 0.352730 -3.111545 1.270966
H 1.228282 3.432657 -0.213445
H -1.736091 2.059273 -0.613301
H 0.473365 1.778073 1.515428
H 0.943357 -0.359869 1.204880
H -1.937235 -2.433490 -0.137503
H 1.760928 -2.414863 -0.790638