25
H16 C9
C 1.830785 1.271191 1.541127
C -0.948486 -0.877874 -0.754557
C 0.388166 0.597191 0.970198
C 2.047061 2.563092 0.760620
C 0.356120 -0.908727 1.455602
C -0.009402 -0.548639 0.276127
C -2.478370 -0.511171 -0.535159
C -0.019941 -0.577670 -1.982089
C -1.856755 -1.869577 -0.882635
H -2.953439 -0.783734 0.473961
H -2.460929 0.618376 -0.199023
H -1.908746 -2.670545 -0.044181
H 2.127656 2.310879 -0.360444
H 2.889532 3.060751 1.068474
H 2.594080 0.532696 1.402012
H 1.163951 -1.555041 1.592883
H -1.874664 -2.405922 -1.812558
H -0.475637 -0.644523 -2.862754
H 0.903260 -1.282931 -1.945393
H -2.952949 -0.283548 -1.546817
H 0.459033 0.514898 -1.860922
H 1.681250 1.385847 2.634003
H 1.143052 3.255814 0.758296
H -0.248625 1.478910 0.806813
H -0.494466 -1.136612 2.233963