13
H5 C4 N3 O1
N -1.788296 0.960341 -0.751762
C -0.105364 -1.672062 0.924420
C -1.057662 1.827733 -1.197797
N -1.547750 -0.098304 -0.179985
C -0.341225 -0.320306 0.231331
O 1.334361 -1.603170 0.670378
C 1.215263 -0.263177 0.404205
N 0.087315 1.939263 -1.296645
H -0.243287 -1.692691 2.085546
H 1.394717 0.414371 1.247526
H 1.797895 0.125760 -0.467098
H -0.760303 -2.544691 0.550699
H -1.378942 2.726249 -1.773181