21
H12 C8 O1
C -0.086996 -0.246666 -0.806472
C -2.545047 0.189341 -0.213449
C -1.238333 0.834754 -0.644184
C 2.216958 -1.646483 0.024803
C 1.245758 0.466966 -1.062677
C 1.080965 -0.460571 0.078514
C 0.818753 -0.114344 1.522627
C -1.876627 1.298335 0.574118
O 1.170753 1.024013 2.010639
H 2.274508 -2.018878 -0.884167
H -1.273896 1.438616 -1.466969
H -0.309087 -1.110610 -1.349131
H -2.542179 -0.851882 0.335566
H -2.345402 2.371568 0.532154
H -1.459253 1.157415 1.578152
H 1.288660 1.520062 -0.970434
H 1.767212 -2.430890 0.750322
H 0.194681 -0.803033 2.144262
H 3.147154 -1.264941 0.477086
H -3.450891 0.381166 -0.740013
H 1.897823 0.103971 -1.861559