17
H8 C8 O1
C 0.915212 0.304977 -0.686956
C 0.231513 -1.035818 -0.485859
C -1.054191 -0.559451 0.241361
C 0.611580 1.208786 0.516658
C -0.802846 0.599116 1.034826
C -1.449381 0.808532 -0.237774
C -0.145028 1.400490 -0.827556
C 1.128578 -1.855193 0.303904
O 1.837332 -2.820842 -0.130357
H 1.868874 0.370392 -1.189070
H 1.246188 -1.579249 1.388669
H -0.038390 2.255576 -1.477092
H -2.448477 1.146624 -0.497195
H -1.194707 0.831407 2.040936
H -1.862490 -1.323272 0.474093
H 1.222046 1.817901 0.976100
H -0.065798 -1.569982 -1.444672