19
H10 C7 N2
C -0.969509 -0.526530 -0.295309
C 1.504150 -0.046217 -0.070888
C 1.211699 1.252838 0.429537
C -2.482188 1.201207 0.633241
C 0.451587 -1.159949 0.016862
C -0.170634 1.656300 0.624520
N 0.706268 -2.238042 -0.856085
C -1.160471 0.800986 0.337411
N 2.719659 -0.464492 -0.465192
H -1.742679 -1.246627 0.068735
H -1.068496 -0.493494 -1.418925
H 0.359743 -1.549486 1.047726
H -3.134820 1.421935 -0.222471
H 1.551081 -2.196398 -1.190151
H 2.016937 1.972090 0.485426
H -0.337566 2.625185 0.993153
H -0.005254 -2.623298 -1.323848
H 3.378528 0.251998 -0.344026
H -2.828041 1.361988 1.550299