21
H12 C6 N2 O1
C 1.702191 -1.975878 -0.102234
C 0.226524 -1.622606 -0.136503
N 2.997585 1.395577 -0.615311
C -1.346640 1.524077 1.092665
C 1.900651 1.060742 -0.855424
O -2.712471 1.837109 1.388136
N -0.040958 -0.187254 -0.051324
C -1.349756 0.302063 0.143894
C 0.556956 0.583757 -1.215667
H 0.025688 1.409307 -1.457396
H 2.179744 -1.782871 -1.040623
H -0.294732 -2.085391 -0.906790
H 0.616388 -0.145940 -2.124472
H -0.229971 -2.008440 0.814341
H -0.802814 1.270447 2.020469
H 1.771878 -3.098149 0.036930
H -1.964589 0.573023 -0.759112
H -1.929893 -0.519094 0.604915
H 2.328544 -1.476490 0.684229
H -2.771483 2.577114 1.833554
H -0.862825 2.368918 0.645766