20
H11 C7 N1 O1
C -1.192295 -0.530888 -1.400927
C -1.375305 -1.258366 1.015360
N 4.115244 0.582045 -0.646543
O 1.352531 1.851393 0.845193
C 2.983139 0.759057 -0.457726
C 0.862653 -0.364418 0.176889
C -0.642779 -0.399477 0.004703
C -1.512726 0.295609 1.062991
C 1.507331 1.010013 -0.216572
H -2.406895 0.657984 0.718349
H -0.999614 0.779568 1.887500
H -2.188488 -1.839077 0.716610
H -0.767152 -1.393295 -1.922301
H -0.894199 0.388420 -2.025466
H 0.551939 2.042819 0.252869
H -2.295856 -0.580655 -1.361522
H 1.216928 -0.566978 1.198793
H 1.145975 1.279344 -1.260667
H 1.337362 -1.088908 -0.471158
H -0.797823 -1.624192 1.883569