13
H4 C5 N4
N -0.013336 0.600516 -1.519306
C 0.481921 -1.567589 -0.194996
N -1.091908 -0.175802 0.662163
N 0.271944 3.221863 0.947267
C -0.012000 -0.189322 -0.282369
C -1.142194 -1.392190 1.131355
C 0.799966 1.058640 -0.446513
C 0.468212 2.298191 0.286018
N -0.206481 -2.266101 0.695187
H 1.929094 0.992087 -0.661128
H -0.826160 1.122330 -1.666525
H -1.931373 -1.685772 1.873204
H 1.272302 -2.016848 -0.824346