22
H13 C6 N1 O2
C 1.930339 -1.275160 0.155543
C -1.982109 1.064363 -0.799520
O -0.775141 -1.109394 0.200908
C 0.312173 0.792162 -1.933342
N 0.495952 -1.478086 1.762420
C -0.424826 1.004091 -0.586843
C 0.019026 -0.184074 0.373979
C -0.101764 -0.156768 1.867580
O 1.573073 -0.014156 0.279979
H -2.437985 1.137806 0.131386
H -0.013119 1.547036 -2.638394
H 2.949695 -1.579763 0.615092
H 0.659630 0.496743 2.421018
H 0.757445 -2.260478 1.555560
H -1.056543 0.359968 2.124260
H -0.071898 1.990755 -0.095281
H 1.440518 0.907918 -1.796381
H -2.207239 1.921097 -1.424692
H -2.340944 0.259895 -1.362838
H 1.707987 -1.702174 -0.770047
H 0.093066 -0.177699 -2.362682
H -0.527375 -1.544098 2.282321