18
H10 C7 O1
C -1.807643 -0.222259 0.575384
C -0.364835 -0.164159 0.049677
C 0.512695 0.690289 -1.209271
O -1.970653 -0.463952 1.931996
C 0.130497 -1.390262 -0.650817
C 0.667523 0.491290 0.949359
C 0.756660 -0.735230 -1.656732
C 1.469621 1.195005 -0.159709
H -1.386404 -1.328209 2.105589
H -2.421018 -0.866075 -0.081902
H -2.191076 0.836039 0.361805
H 1.315557 -1.052019 -2.533797
H 0.068030 1.281536 -1.949860
H 0.192475 1.191411 1.670059
H 1.407138 2.298637 -0.083605
H 2.498095 0.908167 -0.286223
H 1.232926 -0.212917 1.545022
H -0.109581 -2.457296 -0.576974