16
H7 C6 N1 O2
O 1.333062 -0.088314 -0.819085
C -1.540583 1.196259 -0.731472
C -1.290514 -0.279328 -0.090231
C -0.767916 2.297448 -0.202660
C 0.769630 -1.319109 0.803729
O -0.963411 0.624404 -1.865260
C 0.066493 -0.357886 -0.206846
N -0.183983 3.195503 0.236964
C 2.145304 -0.651234 0.275757
H -2.614346 1.390025 -0.812185
H 0.713471 -2.350243 0.504563
H 2.481314 0.123823 0.972952
H -1.856167 -1.050265 -0.732603
H 0.529017 -1.221014 1.822847
H -1.767893 -0.253145 0.896635
H 2.946517 -1.256933 -0.053111