20
H11 C6 N1 O2
C 0.770107 -0.879889 -1.135216
C 0.199897 2.949276 0.462113
C -0.275388 -0.928449 1.208295
C 0.128407 -0.126860 -0.012458
N -0.243424 3.646135 1.230348
C 0.822373 2.026309 -0.523839
O 1.063010 0.910309 0.340728
C -1.203720 -2.130309 0.983151
O 0.136939 2.011350 -1.745493
H 0.728943 -1.389785 1.624094
H 0.114620 -1.652058 -1.588225
H -0.843037 2.187015 -1.639339
H -0.865765 0.290515 -0.315459
H -0.652832 -0.239760 1.959079
H -1.531040 -2.617800 1.891526
H 1.576406 -1.509600 -0.737445
H 1.170050 -0.292391 -1.928079
H 1.829790 2.328594 -0.843841
H -2.116483 -1.693681 0.510140
H -0.808846 -2.888951 0.259924