16
H7 C6 N1 O2
C 1.161538 -0.050845 0.831929
C -1.356293 -0.655366 -0.287918
C -1.330100 0.209013 0.781860
C 0.813641 0.294888 -0.669473
O -2.464644 0.271944 1.318913
C -0.060773 0.255185 1.685414
N 1.303925 -0.749589 -1.524844
C -0.742750 0.546888 -0.668232
O 2.219160 -0.389209 1.159821
H -1.992010 -1.223395 -0.828413
H -1.107322 1.265984 -1.431399
H 0.030498 1.304771 2.115167
H 1.373528 1.249302 -0.785023
H 1.688912 -0.382900 -2.390434
H -0.129186 -0.483764 2.454951
H 0.591895 -1.462901 -1.762311