19
H10 C7 O2
C 0.956916 2.178097 0.010360
O 1.015382 -1.107031 -0.720288
C -1.065382 0.465073 -0.569977
C -1.100066 -3.475276 0.736430
C -0.751107 -2.380089 1.040249
C 0.068594 -0.250401 -0.070364
C 0.199479 1.077844 -0.735790
O 0.643039 0.988272 -2.074603
C -0.261978 -1.011112 1.335449
H 0.554483 3.130158 -0.251848
H 2.010526 2.186616 -0.171315
H -1.582171 0.020502 -1.373565
H 1.886785 -0.894112 -0.129767
H -1.756337 1.040804 0.164108
H 0.754679 2.016412 1.081240
H 0.297089 1.856466 -2.483941
H 0.662109 -1.003330 1.902194
H -0.974125 -0.364597 1.840735
H -1.557935 -4.474275 0.470709