20
H11 C8 N1
C 0.712361 1.196952 -0.697541
N -2.219313 -0.449527 -2.297426
C -1.442878 -0.539845 1.067247
C -1.534606 -0.667295 -1.395951
C 1.679180 0.805754 -1.828455
C -0.693029 -0.899997 -0.228169
C -0.240319 0.202288 1.608057
C 0.479139 0.081380 0.251919
C -0.691972 -1.137062 2.207497
H -0.211621 1.604875 -1.091910
H -2.485905 -0.146089 1.157351
H -1.159338 -1.001367 3.158078
H 1.470819 -0.382687 0.432316
H -0.116515 -2.051651 2.152503
H 1.270126 0.014135 -2.357416
H -0.164952 1.052792 2.204782
H 2.613581 0.462823 -1.450114
H 1.172741 2.069026 -0.075307
H -0.271344 -1.894427 -0.311716
H 1.833840 1.679909 -2.505747