15
H7 C5 N1 O2
C -1.205184 -0.691844 0.590928
C -0.015511 0.068774 -0.131187
C -1.095654 1.192743 -0.333607
O -1.284993 -1.594502 1.319518
C 1.438206 0.217707 0.401693
O 0.423355 -0.661209 -1.253892
C 1.596508 -1.100397 -0.497259
N -2.140355 0.272707 0.064242
H -1.187944 1.576002 -1.356631
H -1.004664 2.075335 0.298035
H -3.022591 0.522329 0.507693
H 1.913333 1.115183 -0.017681
H 1.614184 0.108531 1.454681
H 2.507392 -1.110648 -1.115904
H 1.463923 -1.990719 0.069368