20
H11 C7 N1 O1
C 0.264782 0.548406 -0.200207
C 0.063772 -0.772037 1.721316
C -1.890857 -0.910404 -1.209107
C -1.001445 -0.302549 -0.160363
C 1.067634 -0.662401 0.564860
N -0.181715 1.439817 0.835211
C 0.807380 1.178061 -1.467006
O 2.365788 -0.205885 0.858616
C -1.016773 0.149313 1.287407
H -2.541192 -0.199463 -1.605524
H 0.128607 1.947855 -1.839662
H 1.730320 1.683294 -1.217961
H -2.373928 -1.821506 -0.840432
H -1.869521 0.329173 1.874018
H 0.573169 1.692370 1.526633
H 2.695736 -0.786071 1.560826
H -1.298356 -1.150580 -2.075790
H 0.973235 0.442550 -2.242661
H 1.174911 -1.519277 -0.050007
H 0.328503 -1.080671 2.679834