13
H4 C4 N4 O1
N 1.561961 -2.213196 -1.542505
C -0.290382 0.386757 -0.214749
N -0.411664 0.912420 2.043497
C -0.839032 0.679951 -1.570635
C 1.061633 -1.477884 -0.801888
N 0.460346 -0.634458 0.027832
N -0.779988 1.201651 0.741245
C 0.437814 -0.008464 2.203100
O 1.014128 -0.786057 1.398495
H -0.002193 0.762700 -2.254004
H -1.462323 -0.192942 -1.867162
H -1.497996 1.538287 -1.470944
H 0.747710 -0.168771 3.307745