21
H12 C8 O1
C 1.719441 -0.942013 -0.210004
C 0.482942 -0.192158 0.161865
C 0.763643 1.260703 0.669384
O -2.352604 -1.592459 0.916645
C 2.718619 -1.615390 -0.499350
C -0.159945 -0.996842 1.409786
C -0.296237 -0.088226 -1.231414
C -1.706287 -0.823110 1.291361
C -1.142761 1.162575 -1.391326
H 0.219298 -0.523308 2.290827
H -0.544342 2.066809 -1.443299
H 1.234403 1.882123 -0.110545
H -0.917630 -0.948489 -1.292946
H -1.971328 0.217530 1.613407
H -1.559690 1.146111 -2.414191
H 3.553209 -2.077348 -0.801621
H -0.125176 1.753926 0.997389
H 1.539144 1.187063 1.474524
H -1.943143 1.306170 -0.688683
H 0.428856 -0.159476 -2.032715
H 0.059562 -2.024182 1.290909