12
H3 C6 N1 O2
O 1.867913 0.648109 -1.156299
C -1.298156 -0.719461 -0.210562
C 1.786647 -0.791323 1.989873
C 1.058038 0.275691 -0.253047
O -1.277380 0.390530 0.648447
N -1.211666 2.237466 -2.269856
C 1.451946 -0.256055 0.971774
C -0.474011 0.465818 -0.488104
C -0.853251 1.448407 -1.465256
H -2.302930 -0.867381 -0.829514
H 2.108328 -1.187202 2.941656
H -0.855478 -1.644604 0.120870