21
H12 C8 O1
C -0.460249 0.771659 -1.601602
C 1.178990 -0.894560 -0.603337
C 0.932449 0.378916 -0.934094
C 0.753161 -2.068008 0.026198
C -1.030980 -0.346606 1.742572
O 1.569522 -2.834038 0.545141
C -1.247688 1.162839 -0.371564
C -0.352888 0.360699 0.629497
C 0.919117 0.942313 0.571451
H -0.309969 -1.093508 2.221057
H -1.440048 0.430156 2.465640
H 2.081216 -1.335826 -1.365761
H -1.835706 -0.973193 1.440888
H -0.392724 1.519602 -2.432544
H 1.600199 0.530890 1.329206
H -2.311901 0.832434 -0.361454
H -0.957026 -0.196673 -2.074328
H 1.806404 0.887266 -1.554021
H -0.258189 -2.359777 -0.159149
H 0.976631 2.074008 0.701922
H -1.220317 2.211431 -0.215720