18
H9 C6 N3
C 0.214871 0.874032 0.910059
N -2.176164 1.864457 -1.483469
C -1.234133 1.338011 -1.041143
C -1.129307 -1.093173 0.923562
N 2.262879 0.110443 -1.045416
C -0.029227 -0.502417 0.408507
C 1.062850 0.782573 -1.528652
N -0.984819 -2.110295 1.897924
C -0.088313 0.741142 -0.517653
H 1.381020 1.892772 -1.760340
H 1.270715 1.080454 1.214871
H 3.010909 0.389335 -1.711308
H -0.507537 1.408950 1.532897
H 0.725720 -1.157682 0.164209
H -2.150876 -0.750867 0.546686
H 0.728639 0.391973 -2.501072
H -0.518423 -2.939438 1.575266
H -1.838802 -2.320264 2.415091