17
H8 C5 N2 O2
C 0.593484 1.054563 -0.346420
C -0.296573 -1.147519 0.436151
C -0.373953 -0.942949 1.917744
N -0.516608 -0.667978 2.978349
N -0.246502 -0.040343 -0.355768
C -1.041799 -0.097343 -1.632385
O 0.970794 -1.782836 0.109632
C 0.961927 1.724720 1.001749
O 0.791447 2.992413 1.191391
H 1.000698 -2.594271 0.358297
H 0.050705 1.873166 -0.919052
H -1.177658 -1.753133 0.131441
H -2.143562 -0.185028 -1.515341
H 1.424401 1.023253 1.784109
H -0.827670 0.786802 -2.237108
H 1.602916 0.728432 -0.689207
H -0.772030 -0.971949 -2.213573