15
H7 C6 N1 O1
O 0.353133 0.801397 -1.148464
C -1.166425 0.002010 -1.512410
C -0.253822 1.057528 1.569045
C -0.746970 -0.024729 0.725993
C 0.152683 -0.248758 -0.477260
C 1.411924 -1.181595 -0.316917
N -1.795914 0.184568 -0.274820
C 0.103130 1.924267 2.413944
H 2.142031 -0.744718 0.403362
H -0.964738 -0.956435 1.250029
H -1.475628 0.882191 -2.251437
H 1.857925 -1.282532 -1.357495
H -1.314855 -0.907050 -2.101291
H 1.112561 -2.139471 0.098284
H 0.584985 2.633350 2.979442