15
H6 C4 N4 O1
C -0.491457 2.552094 1.219719
N 0.127220 -3.319683 -0.633266
C -0.069484 0.847280 -0.647049
O 0.534761 -1.290706 -1.521971
N -0.083216 0.213182 1.519716
C 0.567593 -2.623237 -1.530170
N 0.128624 -0.948065 0.826235
C 0.183844 -0.534586 -0.537860
N -0.143482 1.223608 0.749346
H 0.384243 -3.105820 0.272656
H -1.529973 2.828180 0.905389
H -0.483158 2.461481 2.274358
H -0.119990 1.527554 -1.374869
H 0.847609 -3.146941 -2.407735
H 0.146879 3.315645 0.885496