23
H14 C7 O2
O -1.182725 0.801912 2.290529
C -0.731636 -0.034888 -0.070779
C 1.563000 0.009975 -1.239097
O 2.811618 0.616629 -1.110969
C -1.084085 -1.252017 -0.893767
C -1.704524 1.081562 -0.144868
C 1.450597 -0.392614 1.208256
C 0.736524 0.320172 0.081671
C -1.651599 0.250736 1.089240
H -1.293001 2.063990 0.055324
H 1.419659 -1.493307 1.052132
H -0.892310 -1.092538 -1.984725
H 1.006058 0.435718 -2.108639
H -2.593608 1.060242 -0.801530
H 2.499398 -0.098790 1.325068
H -1.898914 1.388969 2.594680
H 3.361487 0.412531 -1.938231
H 0.999324 -0.258760 2.143598
H -2.158681 -1.482194 -0.872128
H -2.503010 -0.463198 1.152235
H 1.540064 -1.122237 -1.401611
H -0.497259 -2.134880 -0.630571
H 0.803640 1.382989 0.204182