19
H10 C7 O2
O -0.773305 1.394721 2.310162
C -1.450018 -1.342629 -0.688172
C 0.579521 -0.830651 -0.431196
C -0.648993 -0.127968 -0.289726
O -0.227167 -2.110163 -0.686283
C 0.140639 1.105111 1.247090
C -0.702804 1.379138 -0.154918
C 0.192481 -0.387675 0.945241
C 1.788437 -0.624048 -1.182520
H -0.689681 2.262433 2.593627
H -1.865898 -1.221237 -1.640498
H 1.117166 1.530497 1.296962
H -0.179033 1.881648 -0.863727
H 0.183143 -1.182153 1.761566
H -1.599837 1.760815 0.074453
H -2.234778 -1.703860 0.004059
H 2.695294 -1.045029 -0.703345
H 1.933272 0.437521 -1.426466
H 1.741558 -1.176454 -2.166305