22
H13 C8 N1
C 0.148270 -1.395098 -0.293310
N -0.228443 0.605934 -0.500366
C -0.599419 -0.612760 -1.214885
C 1.381269 0.370150 -0.644735
C -1.125087 0.230373 0.668700
C -0.878341 -1.314489 0.629202
C 2.248739 1.391323 0.129413
C -2.595872 0.684542 0.473058
C 1.536905 -1.084272 -0.111051
H 1.812755 -1.063345 0.966970
H 1.654926 0.425716 -1.664446
H 3.295503 1.123490 0.052732
H -3.130661 0.518553 1.407437
H -0.619250 0.606997 1.612353
H -1.061157 -1.871594 1.427361
H 2.208517 -1.624865 -0.697971
H 2.105337 2.425115 -0.291807
H -1.620991 -2.167127 -0.856881
H 1.917676 1.436153 1.148013
H -3.049598 0.163232 -0.309136
H -2.561033 1.716382 0.263315
H -0.840069 -0.564422 -2.193976