16
H7 C6 N1 O2
C 0.106276 -0.631632 0.900803
C -0.618310 -0.188647 2.103361
O -2.088654 -1.240067 -0.876981
C -1.198928 0.214974 3.043613
C -0.187925 0.228888 -0.399005
O 2.384918 1.204752 -0.357910
C 2.051489 0.507988 -1.296699
C -1.531343 -0.197007 -1.010678
N 0.749229 -0.023010 -1.474394
H -0.064070 -1.660167 0.642031
H 0.499910 -0.266282 -2.365822
H 2.743782 0.247587 -2.117566
H -1.798518 0.520495 3.872145
H -0.205698 1.249859 -0.148954
H 1.153401 -0.565050 1.015720
H -1.995569 0.597312 -1.529698