16
H7 C7 N1 O1
C 0.460370 1.170437 0.603135
C 0.369311 -1.911132 -0.322280
N 0.663966 1.154636 -0.845496
C 1.133317 -2.827112 -0.283631
C -0.275900 0.203051 -1.474290
O -0.511686 0.121603 -2.598069
C -0.571647 -0.813401 -0.378367
C -0.544845 0.063649 0.947767
C -0.938098 1.552526 0.950009
H 1.593230 1.175004 -1.140013
H -1.612849 -1.125715 -0.475434
H -1.126981 1.873115 1.978929
H 1.944460 -3.566965 -0.320412
H -0.435459 -0.507146 1.861947
H -1.439482 2.043243 0.203560
H 1.292309 1.394246 1.292662