19
H11 C7 N1
C -0.315076 -0.760606 0.920875
C -0.856006 1.434370 -0.055903
C -0.822764 0.616379 1.306787
C 0.074631 0.898835 -1.195669
C -0.718563 -1.216124 -0.487346
C 1.536919 -0.925618 -0.277574
C 0.994130 -1.153029 1.094994
N 0.413184 -0.506773 -1.100782
H 1.991115 -1.882989 -0.685648
H -1.641176 -0.877553 -0.853254
H 0.974476 1.523992 -1.118404
H -0.174819 1.033861 2.029464
H -1.875549 0.607527 1.665663
H -0.420920 1.030903 -2.110120
H 2.423675 -0.208841 -0.281762
H -0.561538 2.448926 0.185785
H -1.895290 1.481055 -0.374569
H -0.545820 -2.298482 -0.630158
H 1.419416 -1.245826 1.967630