18
H10 C6 O2
O 0.391218 2.171132 -0.565239
C -0.002676 1.204371 -1.481516
C 0.567267 -0.532350 0.194547
C 0.397145 -0.180091 -0.981026
O 1.086471 -2.377805 -1.561820
C -0.459999 -0.896834 1.259043
C 0.496833 -1.406173 -1.816005
C -0.627159 0.267209 2.193562
H 1.577935 -0.524337 0.631821
H -1.165242 1.284351 -1.493692
H -0.079178 -1.271018 -2.792183
H 0.280197 1.321675 -2.477670
H -1.443452 0.033758 2.932076
H -1.434563 -1.131342 0.681392
H -0.104783 -1.826609 1.757281
H -1.033080 1.153783 1.646849
H 1.342166 2.208338 -0.752751
H 0.210896 0.501922 2.625301