17
H8 C8 O1
C 1.056381 0.387997 -2.572196
C -0.106847 0.678362 -1.666759
C -1.381390 0.659933 1.774232
C -1.132603 -0.049771 3.159808
C 0.970185 -1.133686 -0.709294
O -2.097528 1.565438 1.720639
C -0.644279 0.222293 0.660052
C 1.622735 -0.934143 -1.851790
C -0.058004 -0.032596 -0.465821
H -0.944698 -1.152180 3.067167
H -0.369413 0.452197 3.695927
H 0.688504 0.124795 -3.591860
H 2.417983 -1.425933 -2.264268
H 1.167287 -1.995461 -0.097579
H -0.816593 1.402099 -1.897280
H 1.691196 1.179870 -2.689306
H -2.062934 0.050769 3.728326