17
H8 C6 N2 O1
O 0.747848 0.694947 1.111584
C -2.113214 1.993527 0.650079
N -0.958159 1.815381 -0.119485
C -0.169668 0.676392 0.087867
C 1.327755 -0.509089 0.917139
C 1.586982 -2.115120 -0.923493
C 2.268069 -2.749018 -1.663697
C 0.765097 -1.407368 -0.064480
N -0.150393 -0.328199 -0.693609
H 2.219550 -0.666449 1.510832
H 2.916148 -3.354734 -2.289887
H -0.255618 2.603262 -0.040859
H -0.798844 -0.614169 -1.456692
H -2.081266 1.874019 1.712149
H 0.109886 -2.096265 0.542877
H -2.881466 1.222714 0.248126
H -2.532692 2.960175 0.471541