14
H5 C4 N3 O2
C 0.181241 1.422758 1.257851
N 0.527205 -2.263845 1.190913
C -0.617899 -0.020018 -1.488544
O 0.502405 2.134320 1.995212
C -0.093075 -1.108549 -0.818645
N -0.765305 1.734767 0.256665
O 0.750683 0.048516 1.346835
C 0.414023 -1.105958 0.604479
N -0.767508 1.159412 -0.938947
H -0.141148 -2.105287 -1.220796
H -1.338219 1.806429 -1.460984
H 1.418304 0.434330 -0.446398
H 0.828621 -2.051142 2.136393
H -0.899319 -0.085748 -2.414058