20
H11 C7 N1 O1
C 1.220040 -2.140138 0.265283
C 0.259441 2.251936 0.786500
C -1.231143 2.155053 1.023620
C -0.382622 -1.388383 -1.522778
O -1.187811 -0.984822 -0.437411
C 1.013288 -1.437834 -0.951187
N 1.094803 -0.618813 0.217895
C -0.450500 1.278111 0.084397
C -0.266870 -0.201407 0.391691
H -0.665217 -0.394436 1.426218
H 2.155969 -2.563145 0.610477
H 0.274164 -2.755139 0.678527
H 0.669326 3.208557 0.300871
H -0.808349 -2.386443 -1.947681
H -0.639682 1.398365 -0.994487
H 0.923824 2.005048 1.573891
H -1.577487 1.702193 1.916857
H 1.866872 -1.393812 -1.683362
H -1.826442 2.905086 0.613618
H -0.441607 -0.639928 -2.352936