16
H7 C5 N3 O1
C -1.843019 0.331546 -1.297631
C -0.175109 -1.020217 -0.337470
O -1.408793 -1.790769 -2.183338
C 0.067972 0.054778 0.503940
C -1.143913 -0.819123 -1.348869
N -1.581723 1.302145 -0.566689
N 0.964206 -0.076188 1.506382
C 2.006672 0.972070 1.633690
N -0.653660 1.222811 0.492439
H 0.434821 -1.924749 -0.280742
H 1.468648 1.881699 1.713276
H 2.671498 1.069216 0.797791
H 1.440629 -0.975612 1.566641
H -2.665874 0.492578 -2.043167
H 2.550857 0.837809 2.577196
H -2.133199 -1.558017 -2.733418