16
H7 C6 N1 O2
C 0.549693 0.798203 0.510793
C 1.009246 -0.764269 0.470857
C -0.934249 1.356788 0.873090
N 0.692454 0.295461 -1.567618
C -0.049063 0.649836 -0.928793
C -1.515907 0.834537 -0.577607
O -1.391519 1.860852 1.777422
C 0.735825 -1.113720 -1.068568
O 0.186476 -1.530618 1.301717
H -2.041266 1.647350 -1.047869
H 2.020979 -0.863013 0.727100
H 1.586853 -1.713613 -1.488010
H -2.083898 -0.024675 -0.542870
H 1.354382 1.428011 0.636196
H 0.058372 -1.144835 2.148181
H -0.178373 -1.716305 -1.224020