17
H10 C5 O2
C -0.189887 0.696338 1.151042
C 0.015471 0.152525 -0.282900
C -1.163655 -0.645385 -0.830346
O 1.127830 -0.758602 -0.059657
C 0.384143 1.346769 -1.260671
C 0.874817 -1.331362 1.154630
O 0.152759 -0.378029 1.964174
H -0.951060 -0.975672 -1.880690
H 1.877278 -1.451764 1.648495
H 0.723820 0.849250 -2.236274
H -1.187015 1.039666 1.390174
H 1.177809 1.926974 -0.921833
H -2.043359 -0.063423 -0.748734
H -0.425681 1.956747 -1.419673
H -1.340770 -1.542193 -0.199877
H 0.360957 -2.333688 1.145584
H 0.606525 1.511875 1.386530