19
H10 C8 O1
C -1.849725 0.581301 3.022418
O -1.435374 -1.150857 -0.096072
C -0.806197 -0.144079 0.697192
C -0.435888 -1.798299 -0.810213
C 0.948316 1.215747 -0.385464
C 0.805437 -1.339415 -1.273578
C -0.577964 1.028370 -0.251155
C -1.486785 0.205523 2.025075
C 1.621802 -0.080139 -1.045836
H -1.049463 1.954764 0.151746
H -2.216100 0.847331 4.000974
H -0.828372 -2.769013 -1.182455
H 1.219237 -2.092641 -1.938059
H 0.083673 -0.627122 1.184554
H 2.480117 -0.343811 -0.427593
H 1.164377 2.047184 -0.992547
H 2.000905 0.251694 -2.012563
H 1.389412 1.382600 0.611085
H -1.027383 0.830848 -1.277487