19
H12 C7
C -2.742634 0.124875 0.390125
C 2.262271 0.667714 -0.140881
C -0.430556 0.919880 -0.350677
C 3.689314 0.515848 -0.015359
C -1.164393 -0.162006 0.402953
C -0.906122 -1.590927 -0.229718
C 1.064756 0.734991 -0.240143
H 3.988767 -0.320693 0.663047
H 4.126427 0.359366 -0.976971
H -0.873761 -0.197433 1.473492
H -0.681264 1.873710 0.041398
H 4.145844 1.418975 0.374543
H -3.101293 0.113059 -0.646604
H -1.439609 -2.403453 0.296550
H -3.275010 -0.630455 0.984079
H 0.185879 -1.816068 -0.192073
H -0.690857 0.894106 -1.385981
H -1.246854 -1.607443 -1.249701
H -2.910900 1.105977 0.801939