14
H5 C7 N1 O1
C -0.897089 -0.698552 0.687668
C 1.350587 -0.273016 0.689114
C -1.242254 1.140411 -0.979086
C 2.261507 -0.593670 -0.440075
C 0.217513 -1.299819 0.848593
C -0.682833 0.782812 0.387711
O 0.632220 0.987727 0.494979
C -1.700447 1.451444 -1.982771
N 2.932872 -0.843317 -1.327378
H 0.476082 -2.366174 1.107641
H -2.142471 1.672811 -2.982446
H -1.292188 1.367368 1.117942
H 1.977560 -0.153490 1.571039
H -1.891043 -1.174523 0.807077