17
H9 C6 N1 O1
C -0.576705 0.873173 -1.951620
C -0.182236 -0.213041 0.645513
C -0.291328 1.733229 -0.940292
N -0.558841 -0.518216 -1.843741
O -0.173521 -2.309490 -0.514843
C 0.223261 1.220096 0.366877
C -0.273886 -1.026130 -0.607134
C 0.677826 -0.896593 1.701932
H -0.989490 1.252152 -2.825023
H -1.247212 -0.280854 0.975142
H 0.676994 -0.342714 2.680189
H -0.116413 1.917960 1.224558
H -0.281665 2.777041 -1.098397
H -0.297178 -2.739438 -1.382371
H 1.736411 -0.938359 1.338821
H 1.306779 1.353187 0.319677
H 0.367252 -1.862024 1.910722