17
H8 C8 O1
C -1.110702 0.197825 -3.279603
C 0.424977 -1.603266 0.843213
C 0.725995 -2.987617 1.196789
C 0.434055 1.949977 1.119984
C -0.213667 0.928247 0.318108
O -1.575830 1.222895 0.016662
C -0.923717 0.706861 -2.249501
C 0.131805 -0.466163 0.544085
C -0.698624 1.387368 -1.017782
H 1.540904 1.953034 0.832421
H 0.081683 2.907691 1.008954
H -0.097411 -3.622371 1.009198
H -0.388686 2.372341 -1.251487
H -1.316581 -0.265469 -4.270832
H 0.927983 -3.011221 2.276721
H 0.443996 1.575540 2.205012
H 1.613793 -3.245651 0.698075