20
H11 C7 N1 O1
C 0.187200 -0.197767 0.069051
N 0.140589 0.454681 -1.224261
C -1.317254 -0.101300 0.685108
C 1.892083 1.499188 1.077470
C -1.184430 -0.042120 -1.817479
C -0.516571 -1.486683 -0.075058
C -1.680893 -0.893706 -0.720897
C 1.379666 0.011406 1.019839
O 0.984229 1.349050 1.984345
H 1.571292 2.143327 0.291815
H -0.181077 -2.565917 0.031817
H 2.940005 1.576648 1.326681
H -1.853596 0.848926 -2.022638
H -1.041035 -0.652914 -2.697861
H -1.734995 0.960804 0.686243
H 0.913420 0.179263 -1.809198
H -1.418066 -0.568994 1.682909
H 2.272505 -0.493834 0.428272
H -2.657536 -1.392287 -0.805085
H 1.304464 -0.627787 1.888937