21
H12 C9
C 0.386394 1.429631 1.217986
C -0.432128 0.616872 -0.924832
C 0.366097 -1.161731 1.675693
C 1.534733 0.914850 0.842916
C -1.006732 -0.327940 0.193683
C 1.106292 0.164815 -0.521608
C -0.513555 0.151740 1.587796
C -0.825375 0.111913 -2.384920
C 0.317567 -1.139579 0.123848
H 0.432272 -2.157842 -0.405187
H -1.182059 0.342565 2.366451
H -0.311338 0.587670 -3.154931
H -0.266299 -2.064065 2.045626
H -0.644805 -0.961861 -2.397588
H 2.403064 1.047149 1.142179
H 1.828000 -0.044248 -1.213408
H -2.004168 -0.752892 0.126563
H 1.275714 -1.140031 2.222725
H -0.048289 2.412852 1.028685
H -0.543326 1.700987 -0.998609
H -1.872040 0.269146 -2.573089