21
H12 C8 O1
C -1.265833 1.027909 1.847575
C -0.256497 -0.005436 -0.288663
C -0.765421 -0.218078 1.154781
C 1.929369 1.495155 -0.225686
O 3.216202 3.430559 -0.216848
C -1.205744 -2.144078 -1.383161
C 0.990046 0.814322 -0.293638
C 0.060230 -1.277839 -1.154168
C 3.149260 2.244790 -0.194629
H -0.029184 -0.758860 1.733307
H -2.002388 -1.536497 -1.904692
H 4.119516 1.628770 -0.146282
H -0.944907 -2.972307 -2.060357
H -1.661264 0.774529 2.818143
H -1.613251 -2.504337 -0.459978
H -0.434257 1.725321 1.945440
H 0.814952 -1.837522 -0.577743
H 0.520288 -0.949327 -2.088135
H -1.014624 0.577608 -0.825840
H -1.613114 -1.011812 1.060168
H -1.993413 1.497153 1.260395