21
H12 C8 O1
C 0.703968 -1.794984 -0.163742
C 0.250649 1.385963 -1.677193
C -0.581113 -1.622654 0.514901
O -1.330552 -1.010005 -0.670670
C 1.508014 -0.691455 0.003195
C -1.455150 0.466187 -0.251196
C 0.721896 0.391274 0.847184
C -0.184996 -0.596018 1.582145
C -0.130651 1.218526 -0.227622
H 0.929546 -2.753656 -0.594006
H 1.428163 1.011695 1.387367
H 0.466931 -1.182740 2.298578
H -2.205049 0.587097 -0.612622
H 2.496631 -0.560136 -0.327952
H -0.199108 2.295698 0.034727
H -1.473449 1.291411 1.012551
H 1.246231 1.919935 -1.714227
H -0.536107 1.928291 -2.329070
H -0.996952 -0.202156 2.225077
H 0.471183 0.431325 -2.146528
H -1.130105 -2.513602 0.809077