17
H8 C6 N2 O1
C 0.415093 2.182857 -0.659509
C 0.041187 -1.967310 0.794360
N -1.324809 -1.545402 0.325495
C 0.203785 0.714687 -0.885682
N -0.827850 1.807162 -1.055546
C 1.001769 -1.401202 -0.182939
C -0.680771 -0.644525 1.207225
C 0.293319 -0.058542 0.112564
O 1.894317 -1.821430 -0.770106
H -1.113813 -0.505640 2.215820
H -0.975006 1.950988 -2.012621
H -1.964285 -2.107528 0.888038
H 0.302402 -2.837224 1.385518
H 1.170516 2.714610 -1.344317
H 0.359275 0.548785 1.503560
H 0.689242 0.382712 -1.843724
H 0.515678 2.586980 0.321856