20
H11 C6 N1 O2
O 0.406929 0.099014 2.099171
C 1.721792 -0.253361 -0.482183
C -0.851106 1.381446 0.395845
C 0.631531 -1.403139 -0.360526
C 0.403164 1.105269 1.093210
C -0.648116 -0.936382 -0.993746
O 1.430703 1.025978 0.086046
C -1.338075 0.370474 -0.702081
N -1.871571 -0.878452 -0.157138
H -2.710216 -1.258603 -0.612990
H 1.914059 -0.040800 -1.534497
H 0.636413 2.069358 1.729241
H -0.830478 -1.280653 -1.987170
H 1.303065 -0.211643 2.292961
H -1.715802 1.512038 1.043827
H 1.045572 -2.276593 -0.893200
H -1.941315 0.838907 -1.526023
H -0.769640 2.346942 -0.123360
H 2.662441 -0.531718 -0.020132
H 0.520677 -1.678058 0.652732