21
H12 C7 O2
C -0.953012 -0.886898 -0.005822
C 0.388094 -1.155034 0.724426
C 1.730372 -0.212446 0.800831
O -0.649755 1.241924 -0.719275
C -0.977895 0.215075 -1.053783
C 2.051675 1.125461 0.246564
C -2.337986 0.319655 -1.753828
C 0.799737 -0.288984 2.013637
O 0.726318 -2.329052 0.561581
H -2.537367 -0.487501 -2.414396
H 1.125242 -0.878482 2.811499
H -1.235314 -1.930656 -0.457116
H 2.478016 1.045625 -0.719709
H 2.830838 1.675485 0.840876
H -1.725445 -0.704806 0.785374
H -0.058652 0.135872 -1.643729
H 1.224484 1.805254 0.197502
H 0.134359 0.493315 2.258584
H -3.157324 0.387427 -0.992995
H 2.577017 -0.868032 0.786103
H -2.433417 1.296794 -2.266341