18
H9 C7 N1 O1
C -0.893456 1.539020 2.008520
C 1.370830 0.545496 0.356505
O 1.607870 1.456107 -0.709057
C 1.948587 0.052050 -1.005200
C -0.083804 0.133890 0.389414
C -0.292955 -0.803799 -0.851372
C 0.838778 -0.710280 -1.636987
C -1.424592 -1.731576 -1.027759
N -1.046819 0.483020 1.087305
H 0.926084 -1.223827 -2.559729
H 3.004159 -0.109103 -1.124773
H -1.245580 1.213326 2.953840
H 1.911707 0.638021 1.309291
H -1.379365 -2.172287 -2.026306
H -1.384078 -2.533325 -0.294605
H -2.328114 -1.141461 -0.874306
H -1.573917 2.352164 1.769498
H 0.044668 2.012555 2.235757