18
H9 C6 N1 O2
C -0.075748 -0.485128 -1.447903
C 1.056330 1.807896 0.324603
C -0.205066 1.431702 -0.150690
N 0.050365 1.090975 0.985128
C -1.497026 -0.840748 0.661663
O 2.219045 -0.647120 0.692724
C 1.122785 -1.113888 0.704060
C -0.117708 -0.242175 0.082937
O 0.880092 -2.310781 1.023762
H -1.418590 -1.886864 0.618783
H -0.929070 -0.136380 -1.968873
H -1.598981 -0.481432 1.719572
H -0.119611 -1.676456 -1.572843
H -0.985656 1.996016 -0.617436
H 1.925394 1.282730 0.098549
H 1.158444 2.898203 0.607946
H -2.350009 -0.527444 0.066807
H 0.885029 -0.159099 -1.828776