17
H8 C6 O3
O -0.034289 -0.981781 -1.034273
C -1.262223 0.521631 0.597887
C 1.061691 -0.119497 -0.403327
C -0.355742 0.352175 -0.638031
C -2.551360 -0.209819 0.511509
C 1.991763 0.429004 -1.468642
O -0.931872 1.233869 1.449678
C 1.525218 -0.450277 0.923584
O 3.101857 0.689308 -1.245335
H 1.774275 0.386136 1.500102
H -3.132763 -0.046574 1.447137
H 2.541062 -0.973242 0.757282
H -0.560529 1.023006 -1.428668
H 1.557301 0.419931 -2.512754
H -3.210030 0.111927 -0.341721
H -2.353683 -1.271915 0.375975
H 0.839321 -1.113868 1.509616