19
H10 C7 O2
C 0.709075 -0.663107 -0.628572
C -0.016324 0.269142 0.411856
C -0.272321 -1.780521 -0.402164
C -1.054444 -0.574059 -0.517420
O 1.194075 -0.777626 2.106580
C -0.084972 1.665456 0.406633
C 0.166522 -0.263402 1.784340
C -0.308002 -0.251990 -1.765236
O 1.170169 2.259193 0.816809
H -0.596724 0.095427 2.529229
H -0.255882 0.861092 -2.170602
H -0.887301 2.113376 0.955935
H -0.410144 -0.885734 -2.636353
H -0.175166 2.169001 -0.615680
H 1.855060 -0.709832 -0.777622
H -0.101067 -2.273178 0.584118
H -0.386241 -2.531277 -1.168573
H -2.209925 -0.406550 -0.335056
H 1.663656 1.684591 1.421808