12
H4 C4 N2 O2
O 2.853267 0.321560 -0.303545
N 0.302240 -1.001080 -0.260725
C 0.528975 0.242706 -0.024094
C -1.038998 -1.300672 -0.156237
C 1.835994 0.892667 -0.036472
N -0.589401 0.809701 0.343273
C -1.706629 -0.072290 0.207254
O -2.879255 0.206936 0.413090
H -0.738021 1.819271 0.559997
H 1.039302 -1.656887 -0.560899
H 1.858696 2.009336 0.269332
H -1.466178 -2.271238 -0.451015