17
H8 C7 N2
C -1.386662 -0.474263 0.101702
C 0.981625 0.361997 -0.121953
C -0.422251 -1.015461 -1.778501
C -0.191392 -0.315032 -0.561288
C 3.135150 1.610441 0.815293
C -2.307434 -1.198606 -0.790418
N -1.563603 -1.513982 -1.973858
C 1.969203 0.945237 0.232911
N -1.695993 -0.002246 1.318295
H 0.396805 -1.118901 -2.569032
H -2.749793 -2.089125 -0.355029
H -0.943588 0.445615 1.852742
H -2.302052 -0.489295 1.953058
H 3.008006 1.947587 1.857846
H 3.329190 2.509055 0.222563
H -3.238560 -0.605042 -0.997701
H 3.981353 1.002030 0.793357