20
H11 C7 N1 O1
C -0.116486 -2.262303 1.332335
C 0.604032 0.721312 -1.188900
C -0.446194 1.909269 -0.080856
O -1.878786 0.352046 1.289502
C -0.080356 -0.447284 -0.345159
C 0.807084 -1.276025 0.614877
C -0.899974 0.568747 0.445338
C -0.566212 1.557781 -1.560161
N 1.019643 1.728858 -0.251078
H -0.625329 -1.072400 -1.031045
H 0.540097 -2.968731 1.879215
H -0.269452 2.413658 -2.214591
H -0.743550 -1.759174 2.040866
H 1.431290 1.370549 0.581335
H 1.387008 -0.634072 1.309985
H -0.845265 2.892845 0.378513
H -0.782080 -2.794630 0.670491
H 1.361335 0.390563 -1.902847
H 1.578749 -1.755834 -0.000086
H -1.475503 1.064807 -1.967755