15
H6 C6 N1 O1 F1
C -0.190792 -0.342826 -0.005802
C 0.525689 0.483036 0.701599
C -0.640769 0.125736 -1.305394
F 1.565038 2.635194 1.004577
C 0.312725 2.215825 -0.969577
O 0.529940 -2.450090 0.855618
C 0.834232 1.737705 0.271282
N -0.443692 1.438299 -1.732345
C -0.599933 -1.704420 0.420884
H -1.095767 -2.263761 -0.380082
H 0.290816 -3.200117 1.357953
H 0.996868 0.184538 1.759723
H 0.557611 3.207289 -1.302683
H -1.308661 -0.426998 -1.923315
H -1.333302 -1.639429 1.247551