20
H11 C7 N1 O1
C -0.087312 0.151639 0.239816
C -0.554976 -1.085760 -0.575134
C 1.377375 -2.447173 -0.083726
N 1.966818 -2.707329 0.737301
C -1.190139 0.976295 1.034787
C -0.406568 2.290528 0.588620
O 0.961905 -0.011405 1.171095
C 0.502576 -1.897564 -1.136315
C 0.252970 1.508777 -0.528467
H -1.319311 0.768681 2.037440
H 1.360735 -0.695893 1.254303
H -0.246428 1.518425 -1.478833
H 1.272853 1.651586 -0.734831
H 1.282077 -1.333796 -1.764950
H -1.173090 -0.702510 -1.410625
H -1.199862 -1.731143 0.073813
H -1.058256 3.134629 0.370880
H -2.172296 0.814903 0.580776
H 0.162440 -2.796218 -1.724849
H 0.268491 2.593319 1.348909