16
H7 C6 N3
C -0.994097 -1.406082 -1.183607
C -0.455442 -0.036274 -1.117893
N 1.976679 0.876154 3.059596
N 0.988449 0.096984 -0.984018
C 0.334817 -0.277691 1.339510
N -0.212873 3.156657 0.355021
C -0.100753 1.976362 0.245239
C 1.304909 0.374679 2.285805
C 0.207263 0.584253 0.083053
H -1.040901 0.656966 -1.711610
H -0.281421 -2.160415 -0.721268
H -0.622081 -0.316885 1.868903
H 1.269856 1.001572 -1.657212
H -1.957618 -1.552742 -0.759072
H -1.082965 -1.729806 -2.206108
H 0.666172 -1.243719 1.103685