18
H9 C5 N3 O1
C -2.711503 -2.132979 -1.516832
N -1.455972 -0.363051 -0.413774
C 2.435968 1.015330 1.250871
N 0.187156 1.109930 -0.039674
C -0.185931 -0.193236 0.034971
C 1.618354 1.471166 0.011182
O 0.467746 -1.122770 0.486613
N -3.194614 -2.483635 -2.508525
C -2.095610 -1.642085 -0.234093
H 1.956111 1.387258 2.182675
H 2.450663 -0.121268 1.282615
H 3.481697 1.333477 1.221252
H -1.442395 -2.395100 0.099241
H -1.963362 0.373598 -0.759937
H 1.692136 2.547823 -0.041196
H -0.378005 1.774127 -0.574940
H -2.972705 -1.644118 0.431895
H 2.110270 1.085542 -0.912364