17
H8 C5 N2 O2
C 0.508560 -1.233108 -0.204585
C -0.556194 0.876629 1.229560
O -0.065408 0.789252 2.573522
C -0.932267 -0.812111 -0.786039
N -1.177556 0.139302 -1.722945
C 1.183526 0.311793 -1.898287
N 1.512306 -0.515647 -0.994154
C -0.587488 -0.526398 0.635647
O 0.049364 0.673636 -2.305403
H -1.566228 1.271102 1.218673
H 2.001391 0.791498 -2.391418
H -1.037622 -1.188562 1.395675
H -1.643610 -1.647436 -0.976533
H 0.730455 -2.184480 -0.132445
H -0.135110 1.738248 2.935309
H 0.084515 1.501339 0.522606
H 1.631363 0.014964 0.900801