18
H9 C6 N1 O2
O 2.136843 0.404908 2.436876
C -0.372385 -0.804223 -2.564590
N -0.462758 0.155897 2.816022
C -0.394829 0.578567 -1.970022
C -1.076333 -0.156313 0.530673
O -0.061481 -1.438864 -1.201871
C -0.592271 -0.304833 -0.762481
C -0.117754 0.126006 1.624826
C 1.332049 0.384446 1.281824
H 0.477143 -1.113708 -3.244760
H 1.420246 1.350546 0.750097
H -2.109160 -0.308365 0.767679
H 0.562381 1.105517 -2.030519
H -1.290900 -1.146169 -3.036465
H -1.295450 1.159036 -2.190608
H 1.452054 0.299636 3.148551
H 1.829300 -0.358862 0.570439
H -1.436697 0.066782 3.074344