18
H9 C6 N1 O2
C 1.184421 -0.387906 1.895001
N -0.862791 0.747658 1.029349
C 0.365776 0.512456 0.275084
C -0.090554 -0.590879 1.123731
C 0.585358 0.789890 -1.241359
O -0.261138 -2.851095 0.941349
C -0.782538 -1.805118 0.929200
C -0.644029 0.777773 -2.067206
O 1.499310 0.807320 1.063854
H 1.016000 -0.107736 2.926838
H 1.313950 0.089511 -1.558877
H 1.918407 -1.161842 1.728166
H -1.127073 -0.149849 -1.940786
H -1.685814 0.547013 0.429375
H -0.392372 0.971920 -3.152758
H -1.837242 -1.688748 0.645189
H 1.132213 1.850783 -1.255747
H -1.331902 1.648845 -1.770416