18
H9 C6 N1 O2
C -0.585189 -0.001148 1.023208
N -0.956527 0.049124 2.261580
C -0.504296 -1.212128 -0.513340
C 1.021445 0.735941 -0.685118
C 0.611187 -0.523107 0.251119
O 1.774767 0.287300 -1.805303
C -1.255476 0.118532 -0.375249
O -0.159080 -0.572439 3.098811
C -0.422549 1.191018 -1.062373
H 2.569090 -0.035342 -1.575595
H -0.171805 -1.495012 -1.678637
H 1.553216 1.518679 -0.073176
H -2.375088 0.204976 -0.425769
H 1.477742 -1.069173 0.699880
H -0.860606 -2.089311 -0.162033
H -0.574088 1.138657 -2.138255
H -0.595918 2.265582 -0.757102
H -0.546835 -0.512145 3.917365