11
H5 C4 N1 O1
C 0.737778 -0.687357 -0.446451
C -0.746262 0.993529 -0.693341
C 0.016898 0.152033 -1.375611
C 0.162673 -0.329997 0.756180
N -0.689597 0.616036 0.671745
O 0.451143 -0.812835 1.944276
H -1.474537 1.802286 -1.020669
H 0.178684 0.198893 -2.488985
H 1.144688 -1.525513 1.884844
H -1.209696 1.079946 1.402104
H 1.428217 -1.486995 -0.634105