15
H7 C5 N1 O2
O 0.228739 -1.685109 0.477515
C -0.630382 -0.238783 -0.773249
C 0.272434 -1.419953 -0.921837
C 0.234334 0.586958 1.380988
O 0.796849 1.346139 0.385861
N 0.386320 0.734154 2.517024
C 0.100572 1.161901 -0.893220
C -0.674211 -0.507818 0.728474
H -0.135632 -2.319975 -1.509364
H -0.635346 2.014442 -1.038449
H -1.598769 -0.194916 -1.380507
H 1.054147 1.445196 2.722241
H 0.834485 1.124690 -1.679292
H -1.528021 -0.756305 1.289639
H 1.294468 -1.290634 -1.305801