20
H11 C8 N1
C 0.684198 0.490527 -0.201574
C -0.350056 -1.445243 0.634971
C 1.939862 -1.140850 1.513045
C -0.497752 1.478294 0.034589
C -1.322464 0.371481 -0.711432
C -1.481348 -1.062970 -0.363392
C 0.731257 -0.735791 0.706005
N 0.088424 0.438035 -1.572943
C -0.212584 1.938019 -1.416183
H 1.658132 1.114571 -0.159268
H 0.632190 2.500674 -1.591613
H -2.350309 0.694510 -0.999490
H -0.519699 -2.212099 1.302702
H -0.871863 2.031943 0.871072
H 1.773194 -1.086854 2.657227
H 2.818784 -0.534693 1.275173
H 2.139655 -2.201989 1.296330
H -1.049428 2.233752 -2.061741
H -1.376783 -1.611030 -1.316087
H -2.433399 -1.260268 0.102611