17
H8 C6 O3
O 0.841946 0.298266 -1.807570
C -2.290574 1.240278 0.221142
C -1.511209 0.035570 0.541838
C 0.875360 -0.846669 0.371262
C 1.306957 -0.699166 -1.028937
O -1.868260 0.317725 -0.757251
C -0.100619 0.198042 0.978801
C 2.280995 -0.417683 0.121304
O 0.235411 1.022595 1.750340
H -0.173801 0.328554 -1.701476
H 0.653469 -1.846437 0.801441
H -1.846071 2.184632 0.381744
H 2.529891 0.638979 0.214487
H -2.055833 -0.862649 0.814585
H 3.051829 -1.160070 0.320681
H 1.443970 -1.665079 -1.646361
H -3.373429 1.233105 0.423996