11
H5 C3 N1 O2
O -0.455720 1.681954 -0.183378
C -1.141821 1.977786 0.953487
C 1.135057 -1.626005 -0.651940
O -1.408259 1.267291 1.847238
C -0.181566 0.204218 -0.238539
N 0.946127 -0.183055 -0.492773
H -1.393044 3.042835 0.977626
H 1.409572 -2.084344 0.303422
H 1.962702 -1.763964 -1.332898
H -1.096323 -0.373718 -0.156549
H 0.223275 -2.143002 -1.025696