11
H2 C4 N4 O1
O 0.737940 -1.907072 -1.699629
C -0.022878 -0.020467 -0.390276
N -0.580108 0.748252 -1.301375
C 0.578229 -1.330384 -0.562793
C 1.079429 -1.969463 0.597058
N 1.425759 -2.514069 1.524693
N -0.751102 1.698485 0.748635
C -0.984940 1.776224 -0.522514
N -0.136714 0.575520 0.841790
H -1.527544 2.691321 -0.978362
H 0.181940 0.251650 1.742760