21
H12 C8 O1
C 1.090772 -2.196591 -1.907259
C -1.282410 0.736584 0.498149
C -0.195444 2.301405 1.345240
O 0.675262 1.185796 1.601108
C -1.077633 2.142515 0.128225
C 0.920333 -0.420332 -0.145716
C 0.480532 -1.827872 -0.622316
C -1.620268 1.873951 1.426092
C 0.009149 0.120998 0.938715
H 0.983284 0.308822 -0.964257
H 1.942675 -0.500428 0.279665
H 0.835477 -1.529716 -2.743983
H 0.896179 -3.240057 -2.245455
H 0.216036 3.268684 1.715565
H 0.631337 -2.519602 0.242981
H -2.131729 0.116740 -0.003873
H -1.290844 2.767113 -0.776918
H -2.470858 2.152944 1.976995
H -0.200047 -0.627119 1.775199
H 2.266981 -2.234735 -1.792284
H -0.678747 -1.879098 -0.725893