17
H8 C7 O2
O 1.635836 1.182254 0.466620
C 0.435354 -2.265390 -0.285826
C 0.256260 -3.365609 0.071805
C -1.543718 1.527171 -0.022773
C -0.784619 0.981885 -1.162298
C 0.670565 -0.838702 -0.507690
C 1.085622 -0.070597 0.781316
O -0.571603 -0.350547 -1.200223
C -2.050316 1.934481 0.943552
H -2.519506 2.379708 1.772074
H 0.984012 1.838463 0.767513
H 1.887155 -0.651163 1.281662
H 1.468595 -0.588433 -1.188765
H -1.425993 1.174897 -2.065366
H 0.151214 1.570707 -1.450889
H 0.119122 -4.414060 0.295638
H 0.202023 -0.045055 1.503637