17
H8 C7 N2
N -2.465252 -1.699774 2.013506
C 0.276379 0.513510 -1.106894
C 0.024671 -0.865567 -0.465848
C -1.566517 -1.197799 1.584827
C 0.806486 -1.322368 0.640190
C 0.089968 1.495145 -0.262087
N 0.790073 0.617786 -2.405062
C -0.363115 1.025133 1.089482
C -0.395456 -0.533804 0.972424
H 0.335942 2.555305 -0.383857
H -1.333036 1.410819 1.429719
H 0.817569 1.550999 -2.822850
H 0.362256 1.313726 1.896621
H 1.761122 -0.801250 0.858707
H 0.512268 -0.122128 -2.963277
H -0.512701 -1.560845 -1.037681
H 0.859331 -2.378877 0.962080