23
H14 C7 O2
C -0.765283 0.491261 1.810237
C 1.361986 1.133537 0.986278
C 1.255246 -0.204973 1.722780
C -0.235138 -0.277595 -0.545130
C 0.154944 0.281638 0.791544
O -1.483972 0.476349 -2.618677
C 0.917557 -0.732904 -1.445300
C -1.113933 0.830191 -1.302543
O -1.179458 -1.482466 -0.429935
H -0.440594 1.763496 -1.416990
H 2.108249 1.236796 0.211893
H 1.912656 -1.015676 1.261582
H 0.545936 -1.210994 -2.293819
H 1.504597 0.114468 -1.669560
H -1.640442 -0.218299 1.908171
H -1.960286 -1.196874 0.009964
H 1.268632 -0.347580 2.788474
H 1.265983 2.046249 1.598594
H 1.490634 -1.479275 -0.890280
H -1.714188 -0.433483 -2.526524
H -0.680198 -2.070995 0.139437
H -1.911949 1.080041 -0.650378
H -0.660980 1.217062 2.560172