16
H7 C6 N1 O2
C 0.987824 1.910906 -0.353672
C 0.808903 0.234840 1.178981
O -0.355768 -3.132800 0.683513
C -0.779579 -0.597518 -0.666264
C 0.097754 -0.769329 0.522402
N 1.104928 1.523453 0.912063
O 0.112803 1.635313 -1.305498
C -1.078631 0.799825 -1.041612
C 0.449428 -2.144011 0.940140
H -1.685428 0.889116 -1.929268
H 1.563207 2.805912 -0.659277
H -1.731751 -1.105184 -0.353737
H -0.381418 -1.124328 -1.500076
H 1.172069 -0.017157 2.248098
H 1.355565 -2.297773 1.518492
H -1.639909 1.388739 -0.194313