15
H6 C7 O2
O 0.177949 -1.246289 -1.396222
C 1.537868 0.164856 -0.406128
C -0.378801 0.859627 1.032951
C -1.439093 -0.056822 0.510546
O 2.508936 0.701545 -0.209061
C -0.800971 0.828418 -0.483025
C 0.838318 -1.180777 -0.066887
C 0.113089 0.148696 -1.434875
C -0.163247 -0.718704 1.008635
H 0.164367 0.604143 -2.489548
H -0.139610 -1.231523 1.953808
H -1.275559 1.790969 -0.758269
H -2.393554 -0.236507 0.839166
H -0.214535 1.530493 1.751896
H 1.464864 -1.958125 0.147009