21
H12 C8 O1
C 1.832526 -0.348575 0.531219
C -0.336669 -0.095414 -2.472581
C -0.491105 -0.944178 1.295970
C 0.582864 -0.409424 -0.131695
C 1.117935 0.203219 1.726936
C -1.535238 0.641080 -0.219861
C -0.939376 0.369042 1.227973
O -0.096941 -1.553230 0.232023
C -0.204688 0.445164 -1.043332
H 2.316480 -1.310464 0.603538
H -0.748158 -1.253083 -2.391380
H 2.539431 0.365716 0.089478
H 1.202800 1.302180 1.730269
H -1.297378 1.047445 2.022853
H -2.028856 1.621109 -0.434498
H -0.867987 -1.526667 2.101712
H 0.233934 1.436164 -1.148717
H 0.621177 -0.146663 -2.951540
H 1.387753 -0.193021 2.673890
H -0.964448 0.452897 -2.991073
H -2.324028 -0.103273 -0.451208