15
H6 C6 N1 O1 F1
C 1.852590 -0.618418 -0.269728
C 0.094530 -0.185051 1.491926
C -1.265120 0.384207 1.627165
N -0.510710 0.550692 -1.927274
C -1.598356 0.655143 0.247008
C -0.597574 0.358011 -0.537426
F 0.811467 -0.683030 2.584552
C 0.534508 -0.190163 0.244991
O -1.910603 0.465882 2.679524
H -2.596076 1.118866 -0.047343
H 2.377554 0.097041 -0.850476
H -1.366749 0.740049 -2.409847
H 2.428321 -1.013523 0.527913
H 1.717533 -1.516366 -0.967578
H 0.028671 -0.163327 -2.393369