16
H7 C4 N3 O2
N -2.595244 -0.347160 -1.141282
C -1.345971 -0.627999 -0.733822
O 2.644869 0.198193 1.149262
N -0.471722 0.317816 -0.549900
C 2.003026 1.452075 -0.828404
C 0.134758 -0.584404 1.656873
N 0.372532 0.066915 0.385598
C 1.777855 0.547609 0.335332
O 3.178382 1.656287 -1.148570
H 1.096074 1.872549 -1.315419
H -2.532761 0.393063 -1.910619
H -3.154768 -1.068422 -1.469817
H -0.982728 -0.790042 1.780888
H 0.574239 -1.539222 1.789951
H 0.398972 0.051699 2.506634
H -1.097531 -1.598957 -0.506721