19
H10 C6 N2 O1
C -0.060543 -1.968254 1.395454
C 1.672870 -1.110083 -0.215625
N -0.377686 -2.484016 2.361129
C -1.031862 0.596947 -1.094613
O -1.033844 2.272500 0.479317
N -0.457227 0.081788 0.045393
C -0.257140 1.185699 0.993648
C -1.452866 1.902450 -0.859150
C 0.068328 -1.246023 0.138787
H -0.357245 -1.904263 -0.632960
H -1.166770 0.006896 -1.945494
H 2.127810 -0.814120 0.894778
H 1.510327 -1.237474 -1.517128
H -2.554783 2.025369 -0.893252
H 2.189602 -2.019225 -0.252823
H -1.016057 2.595715 -1.534311
H 2.038262 -0.146620 -0.481950
H 0.794590 1.421367 1.117072
H -0.635757 0.841335 2.001717