16
H7 C5 N3 O1
C -1.189125 -0.292130 -0.271177
N -0.244233 -0.399109 1.658934
C 0.940347 0.447248 -1.007702
C 1.218722 -0.932450 -0.157581
C -0.173823 -1.161044 0.471791
O -1.547804 1.022763 0.308269
N -0.420192 0.289577 -1.333874
N 0.870286 1.659991 -0.206412
C -0.401451 1.934507 0.047622
H -0.598023 2.795830 0.518744
H -0.341652 -2.256136 0.683409
H -1.975877 -0.771392 -0.583758
H 1.369323 -1.717818 -0.835138
H -1.098605 -0.360624 2.087875
H 1.537248 0.555000 -1.890295
H 2.054880 -0.814230 0.509272