19
H11 C6 N1 O1
C 1.722295 0.441197 -0.907400
C -1.230387 -0.333168 -0.945281
C -0.567366 -0.138428 0.249972
C -0.801494 1.232182 0.827902
N -1.069760 -1.106325 1.237535
O 1.543800 -0.317846 1.390474
C 0.983330 -0.444325 0.108184
C -1.807731 -0.505008 -1.958899
H -2.016654 -0.850536 1.513823
H -0.123268 1.438790 1.709723
H 1.243397 0.317143 -1.900738
H -0.564879 2.026724 0.025415
H -2.342951 -0.657534 -2.964416
H -1.870055 1.419203 1.102568
H 1.052169 -1.538720 -0.191287
H -1.034910 -2.088459 0.910729
H 2.777265 0.114057 -0.987530
H 1.634875 1.476214 -0.646417
H 2.472340 -0.485160 1.425660