18
H9 C6 N1 O2
C -1.099082 0.059688 -0.522399
O -1.392310 -1.868490 0.998972
C 1.495909 0.497423 1.203299
C 0.049542 0.149792 1.282381
N -0.320940 1.147137 0.145863
C 1.182187 1.143450 -0.119142
C -0.490188 -1.009679 0.378945
O -0.606827 -1.063704 -2.624429
C -0.885101 -0.062177 -2.091993
H -1.024358 0.963630 -2.560119
H -2.099542 0.235945 -0.341571
H 2.182650 -0.355654 1.197896
H -0.488547 0.244615 2.207094
H 1.573020 0.597655 -1.063560
H -1.807106 -2.455699 0.256553
H 0.345717 -1.634812 -0.044432
H 1.550542 2.225930 -0.257724
H 1.834445 1.184949 1.954363