23
H14 C8 O1
C 0.716564 -0.129508 2.025652
C -2.062920 -0.908195 -1.421404
C 0.225450 -0.605460 0.690244
C 1.591750 -0.526640 0.139869
C -0.104781 0.453514 -0.459885
C 2.228869 -0.182017 1.421772
C -0.777695 1.740539 -0.041223
O 1.312492 0.639963 -0.668325
C -0.755014 -0.122609 -1.721266
H -2.805711 -0.316846 -0.964203
H 2.763735 -1.025499 1.913647
H -0.750715 2.410073 -0.855300
H 2.070210 -1.324110 -0.530460
H 0.451084 0.940936 2.316331
H -0.231995 2.221335 0.802842
H 2.830335 0.739314 1.436180
H -1.783806 1.568025 0.201851
H -0.313600 -1.566398 0.743665
H -2.412519 -1.274135 -2.381462
H 0.540566 -0.770202 2.846500
H 0.016139 -0.806588 -2.139382
H -1.859500 -1.809362 -0.912082
H -0.888950 0.653835 -2.443580