15
H6 C6 O3
O 2.242604 -0.484259 0.512551
C 1.171449 0.433089 0.823383
C -0.539769 0.821745 -0.870119
C -1.212556 0.036015 0.280849
O -1.190961 1.433457 -1.702265
C 1.137771 -0.813349 -0.292979
O -2.143560 -0.909541 -0.044209
C 0.862693 0.633040 -0.687353
C 0.043598 -0.593772 0.770758
H -0.009430 -1.341862 1.622740
H 1.168166 -1.791062 -0.946818
H -1.607428 0.770444 1.035432
H -2.845385 -0.480226 -0.694789
H 1.337674 1.221305 1.548563
H 1.585136 1.064995 -1.355714