16
H9 C6 N1
C 0.396704 0.018340 -0.879446
C 1.617918 0.109530 0.081402
C -0.989627 0.324300 -0.154219
C -0.248373 -1.466472 -1.007176
C -1.007546 1.967810 1.936314
N -1.255862 -1.082238 0.069278
C -0.972332 1.253148 1.016312
H 1.391676 -0.237670 1.065531
H -1.023682 2.626620 2.764148
H 0.372026 -2.313819 -0.783570
H 0.568963 0.504853 -1.887657
H -1.651549 0.691352 -0.954127
H 1.952493 1.057533 0.091945
H -0.775752 -1.607927 -2.000466
H 2.499165 -0.482828 -0.361390
H -0.874223 -1.362528 1.003107