21
H12 C6 N2 O1
C -0.457083 0.195377 1.804385
C -0.983383 -0.822667 2.752233
C 1.539504 -0.179399 -1.431460
N 0.184691 -0.433201 0.699560
C -0.738608 0.355507 -1.444534
C -0.096581 1.020916 -2.652790
O 1.256439 0.324480 -2.675515
C 0.437266 0.301018 -0.474703
N -0.135937 -1.751354 3.064504
H 0.827216 -1.165945 0.969897
H -0.531036 0.713957 -3.604091
H 2.562536 0.103150 -1.154928
H 0.014921 2.011568 -2.568215
H 1.538636 -1.343974 -1.421269
H -1.114685 -0.605327 -1.609130
H -0.465601 -2.117909 3.952463
H -1.288019 0.809792 1.395109
H -1.923480 -0.655171 3.248143
H 0.752579 1.377352 -0.156739
H 0.145533 0.883405 2.379369
H -1.524882 0.978447 -1.072297