18
H9 C7 N1 O1
C -1.129287 0.507410 0.382387
C -0.039496 -0.347102 -1.586686
C 0.711564 1.416696 -0.912070
C 0.105151 -0.216483 0.787127
O 1.326019 2.437063 -1.203018
C 1.005141 -0.067757 -0.441759
C 0.173614 -1.513257 1.556734
C -0.777982 0.940193 -1.068414
N -0.279419 0.901373 1.515250
H -0.571238 -1.490610 2.366034
H -0.570563 -1.271160 -1.440949
H 0.309066 -0.275902 -2.642540
H 0.296571 1.757651 1.314210
H -1.491521 1.453791 -1.709484
H 1.142443 -1.666146 1.986628
H -0.084324 -2.393020 0.939549
H -2.194144 0.236018 0.652706
H 2.068414 -0.408770 -0.495725