19
H10 C8 O1
C -0.952504 -1.011953 -0.039977
C 0.032421 -0.622353 1.119685
C 0.224107 0.957331 -0.685398
C 0.860235 0.549220 0.504144
O 1.745601 -0.475234 -0.200481
C 1.853642 0.496183 1.650933
C -1.887510 0.616548 -1.958744
C -0.886343 0.244631 -0.916093
C 1.494395 -0.912208 1.061609
H -1.558823 0.535597 -2.983517
H -2.836294 0.002781 -1.855149
H 0.594456 1.777871 -1.322525
H 2.875151 0.846504 1.489063
H 1.570029 0.788615 2.666470
H -1.952475 -1.241449 0.381175
H -0.584183 -1.920321 -0.589824
H -0.426188 -0.524532 2.094423
H 2.053323 -1.775881 1.400266
H -2.219049 1.668672 -1.816087