20
H11 C8 N1
C -0.726888 0.723865 -0.884375
C -1.091519 -0.625034 -0.249165
C 0.323914 0.823146 0.198411
C 1.820900 -1.136841 2.063750
C -0.429118 -0.542637 -1.614999
C -1.629820 1.841252 -1.392657
C 0.818443 -1.518539 1.101165
N -0.126986 -0.391192 0.795971
C 2.624308 -0.799866 2.931693
H -2.440290 1.495834 -1.980925
H 0.515751 -0.873094 -1.852446
H 3.367383 -0.449724 3.678909
H 0.293016 -2.373646 1.449112
H 1.454912 0.869182 -0.208906
H -2.049235 -1.114384 -0.085135
H 0.196242 1.682179 0.867514
H -1.169318 -0.753923 -2.443288
H -1.031600 2.540195 -1.995154
H -2.085167 2.408087 -0.548677
H 1.365084 -1.804868 0.169212