21
H12 C8 O1
C -2.318304 0.168516 0.992259
C 0.791500 0.353393 -0.466563
C 2.200701 0.128158 -1.002152
O 0.161927 -2.988171 -1.181127
C -0.296067 -0.769122 -0.454299
C -0.834870 -0.182751 0.902891
C 0.089252 1.674001 -0.445878
C 0.307740 -2.138704 -0.361171
C 0.185161 0.926119 0.818527
H 0.826202 1.303384 1.697002
H -2.531072 0.629575 1.959350
H -0.586124 -0.899630 1.685676
H 2.228287 0.077041 -2.085409
H 2.851623 1.023368 -0.683103
H 0.789593 2.542482 -0.483787
H -1.001083 -0.806932 -1.254138
H -2.919466 -0.752764 0.929305
H -0.798850 1.897770 -0.909220
H -2.628856 0.859467 0.278898
H 0.831061 -2.304763 0.622444
H 2.651651 -0.740457 -0.559528