17
H9 C6 N1 O1
O 1.814026 1.378557 -0.696543
C 0.114723 0.483590 1.144202
C 2.096729 -0.002168 -0.486444
C -0.840037 -0.567688 1.105015
C 0.756260 0.507834 -0.227650
C -0.341751 0.126425 -1.217380
C -1.270035 -0.829052 -0.401742
N -2.175357 -0.316062 0.630524
H -0.005444 -0.293222 -2.130772
H -1.473838 -1.849163 -0.749797
H -0.918131 -1.395052 1.829068
H 0.914420 0.376477 1.905443
H -2.328933 0.672916 0.483394
H -0.330988 1.484028 1.336689
H -0.983300 1.024592 -1.442246
H 2.692400 -0.270089 0.342431
H 2.279240 -0.531937 -1.424182