23
H14 C6 O3
C 3.992738 -1.124452 -0.067987
O 0.036606 1.809265 0.135259
C -0.478565 0.627907 -0.429298
C -3.964965 1.590589 -0.146177
C 2.556082 -1.511492 0.147953
C 0.326423 -0.641623 0.007446
O 1.760274 -0.353125 -0.184612
O -2.634805 1.535832 -0.569431
C -1.913551 0.461757 0.028509
H -2.016981 0.306303 1.124947
H -0.353528 0.693572 -1.454970
H 0.209164 -0.847846 1.085976
H 4.184543 -0.784619 -1.092460
H -4.538973 0.707455 -0.391184
H -4.448904 2.445582 -0.609468
H 4.334189 -0.286714 0.560917
H -3.995261 1.696311 0.966456
H 2.408758 -1.815938 1.145085
H -0.102703 1.800657 1.145102
H 2.277622 -2.313152 -0.528112
H -2.322869 -0.559435 -0.434295
H 4.645897 -1.960616 0.158485
H 0.038804 -1.476182 -0.598148