22
H13 C8 N1
C -1.988007 -0.717000 -1.177408
C 0.934655 -1.253092 -0.162286
C -1.224822 -0.159528 -0.062458
C 0.133235 0.551894 1.271407
C -0.082892 -0.945250 0.849720
C 2.503363 0.746656 -0.204966
C -0.096152 0.917488 -0.177551
C -1.661174 0.894086 0.898029
N 1.214386 0.195295 -0.695799
H 2.839591 0.491494 0.788665
H 1.890827 -1.660830 0.182554
H 2.531514 1.793044 -0.436839
H -2.377613 1.611069 0.424995
H 3.228583 0.262072 -0.879923
H -0.312082 -1.649399 1.655003
H -2.038858 0.662792 1.868687
H -2.521915 0.044363 -1.733542
H 0.540193 -1.947407 -0.965071
H -0.133225 1.867904 -0.633503
H -2.701751 -1.457598 -0.880421
H 0.710410 0.962408 2.034509
H -1.388271 -1.210464 -1.963741