13
H4 C4 N1 O1 F3
O 1.261406 0.902920 -0.706371
C -0.718662 0.610520 0.502627
C 1.166044 1.828758 0.336270
C 0.136206 -0.066074 -0.527921
N 0.160158 1.664930 1.116326
C -0.205888 -1.683373 -0.284025
F -1.578612 -1.892435 -0.262021
F 0.257471 -2.040788 0.915025
F 0.239962 -2.534663 -1.280693
H 1.926839 2.551407 0.484522
H -1.718270 0.846682 -0.075751
H -1.054707 -0.029730 1.344306
H 0.128032 -0.158139 -1.562287