23
H14 C7 O2
C -0.369214 -0.475982 2.887712
C 0.575976 -0.671413 -1.965411
C -0.149855 0.074719 -0.759553
C 0.235055 -0.251951 -3.330480
C 0.179554 1.564417 -0.806567
O -0.443449 0.108408 1.618878
C -0.934949 0.375429 3.892906
C 0.197409 -0.571080 0.596878
O -1.001281 0.096431 5.105766
H 1.271517 1.701609 -0.625696
H -0.081636 2.052875 -1.736041
H -0.841830 -0.291874 -3.548998
H -0.230526 -1.626305 0.554321
H -1.230079 -0.039638 -0.973783
H 1.227774 -0.670310 0.751862
H -0.791502 -1.487753 2.877946
H 0.577493 0.776813 -3.531896
H 1.668714 -0.631656 -1.770920
H -1.380302 1.298697 3.467443
H 0.338357 -1.779466 -1.830856
H 0.766801 -0.861009 -4.066652
H 0.763428 -0.714584 3.140926
H -0.347482 2.023627 0.052217