16
H8 C6 N2
N 0.549481 -1.779577 -0.884129
C 0.807437 -1.642184 0.406946
C -1.063500 1.581833 -1.526582
C -0.375015 0.484060 -0.814146
N 0.999667 -0.430429 2.484095
C -0.043797 -0.747019 -1.479973
C -0.051057 0.545134 0.527305
C 0.591245 -0.553499 1.141870
H -0.888167 1.498333 -2.592573
H -0.276530 -0.910630 -2.547729
H 0.580604 0.317023 3.020881
H 1.185532 -1.281907 2.975579
H 1.304313 -2.575140 0.923914
H -2.197933 1.523781 -1.519651
H -0.295246 1.465750 1.076513
H -0.827050 2.504476 -1.192315