14
H6 C6 O2
C -0.664011 1.304651 0.275105
C -1.709566 1.227442 -0.562795
C 0.935599 -0.544094 0.671403
O -2.322071 1.619742 -1.515559
C 0.320069 -2.705570 -0.752843
O -1.725660 0.311512 0.492665
C 0.657931 0.799836 -0.046149
C 0.571088 -1.765713 -0.040403
H 0.077468 -3.476757 -1.413972
H -0.799107 2.114752 1.081152
H 2.018345 -0.601985 0.884413
H 0.856690 0.721024 -1.108540
H 0.429861 -0.571239 1.684810
H 1.353397 1.566390 0.350698