18
H9 C6 N1 O2
O 1.030657 -0.934385 0.571634
C 0.447838 0.373274 0.684545
C 0.666517 -1.627376 -0.536014
C -0.225006 -0.705232 -1.391092
C -0.585413 0.462847 -0.481104
O -1.462147 2.639416 -1.263366
C -0.531858 1.808687 -1.127743
C -0.163693 0.460725 2.091025
N 0.886663 -2.751115 -0.755924
H 0.404694 -0.327994 -2.209649
H -1.057509 -1.240474 -1.879390
H 0.433711 2.003867 -1.604506
H 0.591480 0.382046 2.848403
H -0.917144 -0.294712 2.294921
H -0.662449 1.511606 2.261747
H -1.680441 0.312515 -0.039042
H 1.218066 1.104100 0.612918
H 1.606080 -3.177791 -0.077363