25
H16 C8 O1
C 1.245010 1.077057 1.096509
C 0.171598 -0.483703 -1.595864
C 0.417794 0.029361 1.775916
C -1.094761 -0.146711 1.330230
O 1.291643 -1.001522 -0.940974
C -1.120350 -1.147887 -1.120152
C 0.984969 1.706455 -0.333882
C 0.092275 1.047452 -1.352933
C -1.317673 -1.338853 0.439039
H 1.996016 1.796599 -0.797928
H -1.233546 -2.140689 -1.568472
H 1.287470 -2.046578 -0.999625
H 0.667564 2.707052 -0.209940
H 2.267720 0.638461 1.016257
H -2.384744 -1.678139 0.612951
H 0.361936 1.454651 -2.346233
H -0.868465 1.293841 -1.091347
H -0.662445 -2.206088 0.757019
H -1.477325 0.729166 0.926609
H 1.356692 1.919189 1.782270
H -1.964464 -0.559421 -1.514635
H -1.622151 -0.310558 2.233359
H 0.441053 0.300444 2.863321
H 0.254392 -0.679901 -2.661065
H 0.909752 -0.959677 1.699543