21
H12 C7 O2
O -0.361884 -1.257939 -2.092872
C 1.263259 1.363536 -0.106204
C 0.002335 -1.612248 -0.797269
C -0.373774 1.916725 1.267680
C -0.537970 -0.556081 0.254926
C -0.497042 -3.043545 -0.524949
C 0.880235 2.616358 0.753823
O -1.258648 0.460804 -0.525775
C -0.110239 0.767204 0.318760
H -1.337124 2.407472 1.204218
H -0.996314 -0.511525 -2.000749
H -0.227715 -3.386269 0.494910
H 1.107442 -1.599572 -0.663226
H -1.693076 -3.034786 -0.434435
H -1.007476 -1.062520 1.110809
H -0.229829 1.559187 2.293479
H -0.217336 -3.723306 -1.269513
H 1.360540 1.419524 -1.221314
H 0.621607 3.536802 0.084022
H 2.044134 0.792176 0.343748
H 1.568900 2.948035 1.509905