15
H7 C5 N1 O2
O 0.381581 1.909870 1.190872
C 1.140709 0.898560 0.500386
C -0.543286 -0.991908 -0.436703
C -0.649907 1.054224 1.216001
N -1.804894 1.264653 1.744891
C 0.020030 -0.067497 0.493199
C 0.171228 -1.364448 -1.719198
O 0.073532 -1.374701 0.786372
H -1.915673 2.153398 2.152265
H 1.544399 1.278081 -0.468986
H 2.071393 0.638781 1.105624
H 0.032076 -2.426977 -1.970575
H -0.207905 -0.692342 -2.518325
H 1.264274 -1.200448 -1.622440
H -1.577555 -1.079267 -0.453404