22
H13 C7 N1 O1
C -1.834006 1.866848 -2.037655
C -1.776326 1.921102 -0.581236
C 0.618529 -0.211596 -0.179249
C 0.191237 0.524082 -1.371314
O 0.658363 0.311300 1.127793
C 1.127846 -1.459886 0.064951
C 0.800582 -1.682954 2.676976
C 1.355409 -0.884591 1.509137
N -1.292897 0.762054 -1.420364
H 1.456073 -2.527661 2.890076
H -0.996608 2.555648 -0.114993
H -0.190462 -1.999931 2.440299
H 0.435001 -2.375784 -0.010348
H 2.117484 -1.767042 -0.410695
H -1.088957 2.347452 -2.654844
H -0.821587 -0.885524 -1.338294
H 2.476093 -0.633658 1.743553
H -2.661890 1.768839 0.059888
H 0.699633 1.556451 -1.292504
H 0.700800 0.088700 -2.239295
H 0.802171 -1.080708 3.583004
H -2.776520 1.806884 -2.444863