22
H13 C7 N1 O1
C 1.478291 -0.037878 0.261566
C -0.757417 -1.694106 1.473349
N 0.002816 -0.046299 -0.154507
C 1.697834 1.062555 -0.854874
C 2.064903 0.493476 -2.142733
C -2.381875 -0.210290 0.254525
O 2.903474 1.066774 -2.902050
C 0.193586 1.289324 -0.720213
C -0.988621 -0.292140 0.904649
H 2.318320 1.912748 -0.558048
H 1.547545 -0.385703 -2.471972
H 0.184455 -1.771577 1.965017
H -2.559198 0.795273 -0.144572
H -0.140650 2.129285 0.020319
H 1.683921 0.421884 1.243362
H -3.167388 -0.410103 1.028610
H 1.997501 -0.977613 0.135116
H -0.916869 0.457002 1.705083
H -0.385767 1.439107 -1.610755
H -1.467388 -1.856022 2.339944
H -2.430159 -0.936392 -0.536337
H -0.877329 -2.449300 0.764567