16
H7 C6 N1 O2
C 1.637495 0.113286 0.176848
N 3.408193 2.038581 0.558520
C -0.337564 0.647094 0.117900
C 2.651918 1.223202 0.408200
O -2.659921 0.100069 0.548111
C 0.553972 0.060398 1.309016
O 0.650136 0.467971 -0.858972
C -1.699335 -1.070367 -1.261474
C -1.725752 -0.174588 -0.153612
H 0.325891 -0.956649 1.604517
H -1.126870 -0.692669 -2.143457
H -0.616836 1.676486 0.267823
H 2.171703 -0.805500 -0.021845
H 0.662386 0.709448 2.125215
H -1.165282 -2.029730 -1.014151
H -2.730121 -1.307042 -1.662662