23
H14 C8 O1
C -0.675279 0.103483 -1.430050
O 1.075579 2.151460 -0.902191
C -0.098002 0.817006 -2.625685
C 1.606304 0.815258 -0.902875
C -0.797072 -1.144113 1.616882
C -1.016835 -1.032510 3.114411
C 0.486647 -0.214730 -0.447707
C 1.198095 1.427646 -2.071594
C 0.281831 -0.122387 1.044656
H -0.119192 -1.243523 3.659814
H -1.433475 -0.055372 3.377716
H 2.626616 0.701533 -0.566494
H -1.768953 -1.775895 3.387293
H 0.922319 -1.182335 -0.679875
H 1.904589 1.864315 -2.808244
H 0.222036 0.074985 -3.454470
H 1.169474 -0.321654 1.621049
H -1.360198 0.776135 -0.884868
H -0.758865 1.471289 -3.042400
H -1.708998 -1.009385 1.043662
H -0.104250 0.889997 1.312152
H -0.447659 -2.137422 1.286554
H -1.204725 -0.853810 -1.647665