19
H10 C7 O2
O -2.776172 -0.426799 -1.085345
C -0.446808 -0.763451 -0.626471
C 0.116196 -1.764609 0.404841
C 1.752902 -0.082032 0.317650
C 0.518441 0.455407 -0.486030
C -1.898105 -0.515091 -0.301715
C 1.326147 -1.420524 0.830231
C -0.149324 1.650802 0.188406
O -1.136723 2.287966 -0.607980
H 2.103003 0.652209 1.072576
H 2.638376 -0.196536 -0.425401
H -0.409791 -1.151346 -1.598318
H 0.638318 2.442305 0.402207
H -0.469051 -2.647731 0.630775
H -0.509923 1.377606 1.217886
H -1.825472 1.640740 -0.808697
H 0.794131 0.851113 -1.452630
H 1.918733 -1.972893 1.565852
H -2.184880 -0.417121 0.762178