16
H7 C4 N3 O2
N -0.144505 -0.569536 -0.251926
C 0.762444 0.471090 0.106311
C 1.278972 0.518831 1.512268
N -2.138156 -1.660635 -0.693820
C 1.587191 0.967729 -1.027753
O 2.511552 1.715196 -1.001782
N 0.366992 1.497482 0.999525
C -1.498444 -0.517285 -0.333481
O -2.102599 0.477663 0.115685
H -3.125667 -1.636134 -0.806466
H 0.212101 -1.572233 -0.108580
H -1.649842 -2.214877 -1.440670
H -0.647278 1.402039 1.226588
H 1.284437 0.514049 -2.112861
H 2.371426 0.816622 1.560321
H 0.931360 -0.210008 2.256642