15
H6 C7 O2
C -0.624274 1.274286 -0.410344
C -0.724874 -0.833201 0.160917
C 0.589332 0.484717 -0.825469
C -0.770962 0.488633 1.037782
O 1.256422 -0.519482 -1.532366
C 1.393591 0.192047 0.608652
C -0.986504 0.041681 -1.113177
C 0.874142 -1.067953 -0.116283
O 0.525416 0.500055 1.740306
H -1.295376 -1.685417 0.434706
H 2.373650 0.360743 0.759701
H -0.818613 2.281638 -0.597326
H -1.556686 0.656962 1.703788
H -1.568068 -0.126950 -1.961664
H 1.332828 -2.047738 0.110789