25
H16 C9
C -0.086415 0.205437 0.170733
C 1.910699 1.361493 0.249888
C 1.402101 -0.002446 -0.089227
C -1.096354 -2.151840 0.580026
C 0.580121 2.002395 0.805195
C -0.711457 -1.349480 -1.892904
C -1.055129 -0.887562 -0.327326
C -0.380963 1.665210 -0.477746
C -0.108280 0.877532 1.588835
H -0.599914 -0.439243 -2.452882
H -0.150059 -2.660694 0.603654
H -2.005033 -0.507615 -0.351783
H -1.611545 -1.844039 -2.191486
H -1.300424 -1.835817 1.670207
H 0.137520 -1.969401 -1.921680
H -1.886647 -2.798018 0.256656
H -1.427811 1.868859 -0.236549
H 1.748530 -0.769071 0.615751
H 0.609311 3.036051 1.198911
H 2.711723 1.361800 1.003110
H -1.155170 1.082249 1.975710
H 0.543844 0.367756 2.340048
H 2.314112 1.966396 -0.641682
H 1.683061 -0.363098 -1.087627
H -0.065798 1.783151 -1.387791