18
H9 C6 N1 O2
C 0.438356 -0.296838 -1.889936
O -0.733094 -0.971677 -1.389498
C 0.312136 0.106734 0.638188
C 1.242350 -2.091986 -0.184045
C -0.635501 1.095369 0.749102
C 0.476809 -0.853540 -0.487351
C -0.727759 1.872651 2.063022
N -1.600697 1.463215 -0.181184
O -1.526209 2.622763 2.333166
H -2.340656 2.020964 0.198669
H 0.386493 0.769794 -2.061977
H 0.955828 -0.849770 -2.613621
H 1.194958 -2.739965 -1.099882
H 0.824887 -2.613475 0.587135
H 2.286010 -1.887461 0.003712
H 0.111847 1.575837 2.793439
H -1.692235 0.787178 -0.870898
H 1.026462 -0.009808 1.411972