21
H12 C9
C -0.709799 -0.572229 0.866938
C -0.346795 0.160041 -0.495190
C 1.561801 -0.062502 0.528594
C 0.580052 -0.583311 1.633496
C -0.506842 0.303538 2.081346
C -1.593476 0.693017 -1.254824
C 0.826717 1.115648 -0.158100
C 1.859260 -0.833970 -0.508697
C 0.569784 -1.000435 -1.275343
H 2.780052 -0.823580 -1.017822
H -1.372822 -1.362278 0.889641
H -0.444890 1.318211 2.033321
H 1.260381 1.484121 -1.130430
H -1.134272 -0.058245 2.942483
H 0.858413 -1.460117 2.252639
H 0.675329 -0.782748 -2.340839
H -2.364626 -0.082832 -1.439616
H 0.668914 1.966239 0.452715
H -2.083259 1.485751 -0.683074
H -1.249386 1.126321 -2.186293
H 0.165436 -2.030643 -1.190962