17
H8 C7 O2
C -0.857249 0.293939 -1.140763
C -0.878897 -0.618144 0.120500
O -1.821040 2.410968 -0.402547
C 0.712353 -0.017506 -1.340801
C 1.315299 -0.386270 1.177058
C 0.608007 -0.968251 -0.095963
C -1.218144 1.455817 -0.218725
C -0.769619 0.606795 1.093469
O 0.575731 0.754523 1.427970
H 2.357768 -0.202365 1.012745
H -1.439544 0.711149 1.902772
H 0.928964 -0.603231 -2.259638
H -1.408033 0.205463 -2.057977
H 0.908731 -2.013319 -0.236974
H -1.617464 -1.378357 0.267077
H 1.192123 -1.079630 2.004934
H 1.411035 0.828427 -1.253135