14
H6 C6 O2
C -0.319161 0.826881 -0.917215
C -0.083468 -0.140687 0.330005
O 0.781803 -0.905857 -1.791111
C -0.456527 -0.712846 -0.996194
C 1.222743 0.396486 -1.243667
O 2.226570 0.313302 1.075110
C -0.945837 -0.292175 1.579904
C 1.400156 0.114599 0.310965
H -0.719782 -1.194915 2.153569
H 1.961581 0.994752 -1.864121
H -0.785092 0.624819 2.266698
H -0.923265 1.618534 -1.074143
H -1.335734 -1.407544 -1.184329
H -2.023987 -0.235369 1.354516