17
H8 C7 N1 F1
C -0.939342 -0.186994 2.670526
N 0.129695 -1.261364 -0.855072
C 0.442281 -0.032351 -1.421339
C 0.930882 -0.094717 -2.818634
C -0.425688 -0.124489 1.231735
C -0.108348 1.047642 0.675755
F -0.169052 2.165316 1.356208
C -0.275395 -1.284147 0.476046
C 0.397724 1.087145 -0.668283
H 1.106656 0.905244 -3.209002
H 0.134513 -0.538422 -3.484828
H 0.660970 2.027481 -1.077994
H -1.842099 0.330540 2.807055
H 1.860994 -0.736931 -2.904063
H -0.242266 0.170042 3.376230
H -1.144204 -1.207929 3.016576
H -0.517310 -2.266062 0.829084