17
H8 C6 O3
C 0.415248 1.233461 -0.627321
C -1.788083 0.803687 0.113127
C -0.386626 1.495504 0.607050
C 0.177872 -0.242900 -0.211374
O 0.320145 -2.663848 -0.019599
C 0.742839 -1.554774 -0.809274
O -2.915361 1.157981 0.025960
C 0.575406 0.172733 1.234693
O -1.293778 -0.441993 -0.208988
H 1.829000 -1.420450 -0.779446
H 0.448693 -1.565995 -1.838589
H 1.532647 0.376698 1.481453
H -0.508666 2.443494 1.163362
H -0.025814 1.535897 -1.609807
H 1.469499 1.586551 -0.649738
H -0.575582 -2.620357 0.061569
H -0.017471 -0.295714 2.066930