19
H10 C6 O3
C -1.318218 0.067546 -1.312024
C -0.716322 1.384298 -0.828681
C -1.234405 -0.941696 -0.136080
C 0.195496 -1.210230 0.378777
O 2.198889 -0.076780 1.096963
C 0.333174 1.351762 0.273704
O -1.125995 2.474699 -1.252331
C 1.166824 0.022178 0.174280
O 0.066423 -1.503352 1.680058
H -1.808716 -0.456486 0.668761
H -0.031392 1.415869 1.197041
H 1.008302 2.191242 0.090750
H 0.632278 -1.992899 -0.219403
H 0.947510 -1.448313 2.151931
H 1.496762 -0.097627 -0.841629
H -2.205523 0.217347 -1.734832
H -0.620103 -0.278534 -2.109905
H -1.716665 -1.802562 -0.361354
H 2.731657 0.683559 1.083950