19
H11 C6 N1 O1
C -0.333154 -0.836092 -2.275847
C -0.377770 -0.249406 0.275095
C 1.603960 1.357227 0.721055
C -0.226163 -0.951978 1.531077
C -0.789526 -1.161251 -0.897973
O -1.658209 -1.961917 -0.671957
C -0.824255 1.141476 0.206711
N 0.505742 0.824988 -0.156434
H 1.833828 2.350049 0.374488
H 0.009810 -0.208471 2.404145
H 2.462366 0.717208 0.684236
H -0.997884 1.671480 1.147353
H -1.569310 1.477396 -0.596250
H 1.228084 1.421737 1.752851
H -1.094928 -1.535760 1.830795
H 0.794383 -1.031052 -2.302022
H 0.622455 -1.636536 1.545199
H -0.385074 0.177305 -2.560159
H -0.804362 -1.566418 -3.012378