21
H12 C8 O1
C 0.966381 1.841093 0.486824
O -0.956412 -2.210495 -0.911831
C 1.094371 -0.073590 -1.282446
C -2.780656 0.837297 -0.498827
C -0.575689 -0.284795 0.638491
C -1.778274 0.390755 0.051097
C -0.696562 -1.757465 0.412611
C 1.727801 0.701570 1.039337
C 0.631702 0.389303 0.064428
H -1.490644 -2.204762 1.018635
H 0.196492 2.282476 1.111579
H 2.764616 0.596140 0.763472
H 0.233592 -2.275399 0.684238
H 1.417053 2.475453 -0.199997
H 1.332906 -1.139368 -1.362474
H -0.611585 -0.139775 1.709082
H 1.575093 0.423870 2.099635
H 2.047255 0.449735 -1.585142
H -3.709020 1.282149 -0.898087
H 0.352827 0.135457 -2.092284
H -1.741246 -1.719617 -1.248356