17
H8 C7 N2
C 0.969386 1.097722 -1.761570
C 0.818740 0.860142 -0.676009
C 0.146086 0.025159 1.669004
C 0.646995 -1.457473 1.820095
N -0.519157 0.766796 -2.719344
C -0.085395 0.298193 0.169175
C -1.290141 0.037538 -0.495216
N 0.689751 1.266860 -2.411233
C -1.492082 0.303428 -1.824937
H -2.104497 -0.399571 0.106940
H 2.291013 1.617547 -1.681217
H 1.588030 -1.575986 1.383922
H -0.109979 -2.172584 1.486237
H -0.792340 0.144567 2.255650
H 0.888610 0.685802 2.036107
H -2.475035 0.139275 -2.281127
H 0.830011 -1.637402 2.923512