20
H11 C7 N1 O1
N -0.702148 -0.761336 -0.041037
C -1.346250 -2.106682 -0.085691
O -2.344186 0.175918 -1.315118
C -0.414861 1.589193 -0.890032
C 1.764784 -0.429773 0.047105
C -1.216519 0.240440 -0.694495
C 1.152729 0.588095 0.923197
C 0.458418 -0.682374 0.780459
C 0.440680 1.850853 0.372387
H -0.608251 -2.798465 -0.484139
H 1.704657 -0.291223 -1.046398
H 0.500369 -1.374044 1.601047
H -1.669442 -2.439169 0.866168
H -1.090250 2.384571 -1.064703
H -0.097653 2.225631 1.157792
H 2.653289 -0.963102 0.371401
H -2.233280 -2.021596 -0.730918
H 1.688144 0.760604 1.876843
H 1.161555 2.622248 0.077804
H 0.198228 1.430196 -1.721680