17
H8 C7 O2
O -1.791348 -1.060305 -0.462545
C 1.072444 1.468400 -0.943402
C -0.996356 -0.901541 0.659555
C 1.063009 0.038173 -0.773031
C 0.435472 -0.107678 0.647907
O 1.711754 1.801729 0.383080
C -0.320738 1.468071 -0.516636
C -1.041645 -2.253861 -0.005589
C 0.343121 1.501592 0.757987
H -0.327117 -2.575195 -0.688576
H -1.684278 -2.982625 0.449032
H -1.505304 -0.760851 1.577791
H -1.267389 1.643473 -0.921046
H 0.042638 2.020957 1.665529
H 1.554860 2.048837 -1.821260
H 1.643073 -0.755807 -1.381142
H 1.067807 -0.593353 1.372336