21
H12 C7 O2
C 0.696266 -0.453357 -0.704865
C -1.822208 0.168940 0.236842
C -0.843602 -0.353740 1.199989
O -0.461461 1.013988 1.591034
C -0.745860 1.355201 0.201153
C 2.149371 -0.868298 -1.151474
C 0.503385 1.081499 -0.633610
O -3.044368 0.673823 0.741728
C 0.359058 -1.102830 0.616984
H 2.378373 -0.396556 -2.120169
H 0.043434 -0.790752 -1.517475
H 2.891492 -0.567257 -0.431859
H 1.200782 -1.024693 1.300786
H -1.233665 -0.898642 2.125676
H -2.024302 -0.389425 -0.644117
H 0.427884 1.511026 -1.581205
H -1.167832 2.350882 0.130966
H 1.314594 1.555807 -0.079434
H 2.178445 -1.939464 -1.313731
H -2.860424 1.215484 1.529543
H 0.060651 -2.141621 0.503226