19
H10 C6 N2 O1
C -1.710534 1.163542 -1.347254
C 1.136426 -0.595402 2.439560
C -0.558699 0.302519 -1.526527
C -0.758032 -0.377157 0.668711
N -2.609264 1.873086 -1.222040
C -0.038762 -1.290398 1.757564
C 0.443082 0.951004 -2.505209
N 1.650405 1.093321 -2.263505
O 0.220924 -0.069818 -0.388854
H -0.911127 -0.628707 -2.033988
H 2.170290 1.612769 -3.012831
H -0.070035 1.248398 -3.444277
H 1.552327 -1.248142 3.194832
H -1.677253 -0.861911 0.371796
H 1.957157 -0.388076 1.677793
H 0.848962 0.312881 2.850455
H -0.854830 -1.502468 2.435530
H 0.306797 -2.158307 1.225900
H -1.097826 0.562869 1.122355