18
H9 C6 N1 O2
C -1.231559 0.843664 -0.869805
C -1.204526 0.115105 0.522030
N 0.059247 -0.331836 0.929859
O -2.201395 0.069072 1.285371
C 1.245436 -0.264932 0.180468
C 1.191957 0.326635 -1.187786
O 2.302481 -0.690637 0.650634
C -0.184924 0.286999 -1.794500
C 0.125396 -0.946659 2.259904
H -0.488040 -0.781257 -2.173156
H -0.692892 -1.595469 2.423968
H 1.084386 -1.449582 2.345063
H 0.063826 -0.133628 2.961060
H 1.938998 -0.187223 -1.810071
H -1.082464 1.876797 -0.670040
H -2.241467 0.676552 -1.266955
H 1.527984 1.334587 -1.044881
H -0.212444 0.851809 -2.741153