18
H9 C7 N1 O1
C -0.477084 -0.880857 -0.513909
C 0.225561 0.340558 -1.063672
C -0.785175 0.514617 0.049343
N 1.648404 0.483657 -0.949300
C -1.603182 -1.639091 -1.213128
O 2.090928 1.102718 1.376089
C 0.875654 1.033541 1.991791
C -0.364594 0.773273 1.529206
C 2.320114 0.713237 0.037400
H 3.436218 0.733154 -0.054310
H 0.983173 1.243350 3.063220
H -0.137576 0.706986 -2.061436
H -1.165313 -2.383386 -1.852300
H -2.209549 -2.154358 -0.503220
H -1.203148 0.773468 2.110097
H -1.709589 1.026883 -0.272284
H 0.245719 -1.458884 0.075300
H -2.170568 -0.928845 -1.748869