18
H9 C6 N1 O2
C -0.739600 0.687304 -0.150116
C -0.915047 2.608744 -1.441455
C 0.241484 -2.251723 -0.343794
O -0.133700 -2.483020 -1.484159
C 1.652199 -0.951355 1.178351
N 0.388723 0.288588 -0.676480
C 0.467156 -0.914763 0.286082
C -0.934316 -0.378876 0.912678
O -1.473667 1.744345 -0.441156
H 0.337200 -3.146061 0.368968
H -1.790401 -1.029357 0.762043
H -0.797630 -0.009529 1.965400
H -0.687869 2.040744 -2.366037
H 1.712733 0.079752 1.678839
H -1.618425 3.372679 -1.658302
H 1.632115 -1.717483 1.959497
H 0.040933 3.020726 -1.097182
H 2.618112 -0.960728 0.546850