21
H12 C8 O1
C 0.486426 -1.745456 -0.861798
C -0.265611 0.650292 0.551261
C -1.275743 -0.386613 0.325996
C 0.977542 0.685549 -0.302905
C -0.019934 1.825877 -0.464744
C -0.124989 1.087173 2.061238
O -1.741877 -0.644641 -0.967040
C -0.983574 -1.609345 -0.397451
C 1.085421 -0.444147 -1.309220
H 0.548681 -0.071701 -2.282721
H -1.054487 1.434266 2.482967
H 0.215509 0.168553 2.633260
H -1.460082 -2.559757 -0.166059
H 0.530825 -2.538693 -1.667910
H 1.904763 0.975510 0.174443
H 0.648336 1.863275 2.207377
H -0.715888 1.752620 -1.331543
H 1.076164 -2.248368 -0.066088
H -2.109931 -0.419204 1.066233
H 0.156696 2.798266 -0.082859
H 2.121755 -0.573447 -1.602443