21
H12 C8 O1
O 1.982912 -0.637496 0.990965
C 0.907554 0.140804 0.442694
C -2.535733 -0.593485 -0.866016
C 0.098041 -0.675763 -0.569881
C 0.917753 0.530356 -0.947251
C 3.215698 -0.129422 0.709254
C -1.285968 -0.618023 -0.706425
C 0.171097 0.886582 1.573732
C -3.926854 -0.601505 -1.032502
H 1.794686 0.431512 -1.611506
H 0.807780 1.668931 1.947139
H -4.164857 -0.497309 -2.112202
H 0.307959 1.493444 -1.194891
H -4.424254 0.199984 -0.499294
H -4.387757 -1.567768 -0.682763
H 3.415686 0.889678 1.112268
H -0.129941 0.200790 2.354993
H 3.439262 -0.022979 -0.435987
H -0.744723 1.338133 1.172784
H 3.956009 -0.785519 1.130912
H 0.585623 -1.650967 -0.776049