20
H11 C6 N1 O2
C -1.011196 0.014513 0.966147
C -0.395827 2.367254 -0.053359
C 0.578225 0.073492 -0.728275
O 2.459721 -0.290977 -1.874968
C -0.720816 -1.434555 0.658076
O -0.669896 -2.232558 1.841139
N 1.402766 0.580811 -1.633191
C -0.613842 0.838264 -0.214410
C 0.634913 -1.258971 -0.086064
H -1.282197 2.798998 0.311254
H 0.388400 2.502484 0.740753
H -0.527710 -3.130835 1.525081
H 0.868852 -2.109007 -0.739231
H 2.952891 0.250669 -2.523877
H -1.454672 -1.798417 -0.105835
H -0.459193 0.341149 1.889635
H -2.124534 0.127993 1.257289
H -0.046154 2.856524 -0.968774
H -1.439767 0.782016 -0.976577
H 1.460035 -1.278861 0.715188