13
H5 C3 N5
C -0.864204 1.277075 0.151597
N 1.283391 2.163087 0.721424
C 0.368344 -1.123745 -0.219084
C 0.546839 1.147540 0.334337
N 0.934990 -2.320686 -0.478252
N -0.996401 -1.092567 -0.429424
N -1.509991 0.211983 -0.248095
N 1.121601 -0.089961 0.106149
H 0.421268 -3.151057 -0.426254
H -2.485243 0.223211 -0.447571
H -1.466845 2.158404 0.184966
H 0.761063 2.999220 0.874342
H 1.885189 -2.402483 -0.124152