18
H9 C7 N1 O1
C 0.119230 -0.723669 -0.096795
C -2.785509 1.418343 0.989352
O 3.376524 0.690593 0.610318
C 2.609151 -0.127091 0.351951
C -1.449981 0.839074 1.014464
N -3.833619 1.922070 1.001552
C -1.182921 -0.074942 -0.218679
C 0.946690 -1.067768 -1.414627
C 1.328708 0.038527 -0.485856
H 0.443774 -0.817695 -2.344623
H -0.688690 1.606121 1.108966
H 1.306441 1.046673 -0.839446
H -1.312425 0.582857 -1.093012
H 1.488242 -2.020157 -1.448666
H 0.245423 -1.469522 0.628828
H 2.795851 -1.229969 0.610654
H -1.348198 0.202955 1.945779
H -2.058677 -0.816390 -0.320160