16
H8 C5 N2 O1
N -0.372688 1.480652 0.215926
C 0.552375 0.575984 0.743261
O 0.025547 -0.961738 -0.956798
N 1.572210 0.830680 1.598086
C -1.217070 -0.150818 -1.406915
C 1.355026 -1.833722 0.543355
C 0.232814 -0.869670 0.410267
C -1.202387 1.135922 -0.725135
H -1.997970 1.829909 -0.925350
H -1.150744 -0.057731 -2.552997
H 1.152278 -2.805871 0.582251
H 2.378541 -1.494377 0.373204
H 1.618367 1.868705 1.728539
H -0.620305 -1.214765 1.024661
H -0.243200 2.447021 0.529396
H -2.082779 -0.780178 -1.181762