12
H6 C6
C 0.674367 -0.935453 -1.816370
C -0.341254 0.727673 1.159699
C -0.337403 2.596251 2.912837
C -0.326571 -0.173673 0.344310
C -0.327861 -1.197447 -0.674618
C -0.339030 1.738525 2.097361
H 0.412045 -0.020827 -2.377901
H -1.320369 -1.314632 -1.106446
H -0.100158 -2.168128 -0.205106
H 1.694420 -0.827197 -1.440195
H -0.360196 3.358142 3.630358
H 0.672021 -1.783228 -2.523914