17
H10 C5 O2
C 0.915830 0.129562 0.122007
C 1.277272 -0.811634 1.258485
C -1.127600 1.032126 -1.267705
C -1.708742 -0.204689 0.293869
C -0.424309 -0.171372 -0.568165
H 1.303307 -1.843639 0.894265
H 0.522028 -0.759974 2.056122
H 0.857881 1.145156 0.535460
H -2.400590 -1.021206 0.038202
H 2.745694 0.342712 -0.531938
H -1.535853 0.806104 -2.244722
H -0.283053 -1.056534 -1.206172
H 2.240958 -0.543388 1.681876
H -0.545110 1.965948 -1.298093
H -1.585074 -0.178896 1.394827
O 1.891584 0.099973 -0.915507
O -2.144229 1.069774 -0.242810