17
H10 C5 O2
C -0.886212 -0.502140 0.180105
C -0.547960 -1.095246 -1.181254
C 1.514813 0.590571 0.350007
C -1.644895 0.853178 0.236904
C 0.198080 0.208680 1.032986
H 0.133676 -1.940904 -1.094764
H 0.422050 -0.268906 1.981962
H -1.640845 1.429034 -0.708792
H 1.285594 1.179908 -0.547946
H -1.381404 -1.257119 0.778865
H -1.456860 -1.449126 -1.692153
H 3.080758 -0.314028 -0.386770
H -2.650804 0.845657 0.653988
H -0.088276 -0.352464 -1.847513
H 2.054332 1.266924 1.008106
O -0.661506 1.376225 1.185616
O 2.269463 -0.570237 0.050647