17
H10 C5 O2
C 0.275066 1.782201 -0.614879
C -0.744279 0.030332 0.885124
C -0.893663 -1.282045 1.537348
C 0.507366 0.451644 0.130330
C 0.990269 -0.618308 -0.842255
H 1.183858 2.102620 -1.127275
H 1.977934 -0.297577 -1.217694
H -0.027497 2.568033 0.083363
H 1.136307 -1.579785 -0.330494
H -0.514902 1.650367 -1.371054
H -0.090117 -2.016213 1.490940
H -1.557706 -1.405291 2.398699
H -1.353466 0.844512 1.298754
H 1.274026 0.620794 0.895484
H -0.742547 -1.032945 -1.566117
O 0.143947 -0.815388 -1.946747
O -1.564601 -1.002954 0.296488