13
H7 C4 N1 O1
C 1.351823 0.136496 -0.849399
C 1.411167 0.438242 0.676053
C -2.101528 -0.426302 0.129894
C -0.643135 -0.110843 0.131600
H 1.752270 1.450268 0.909810
H 1.989416 -0.709931 -1.160406
H -2.525388 -0.275044 1.120741
H 2.087215 -0.266663 1.206465
H -2.261388 -1.457431 -0.190669
H -2.636118 0.216788 -0.573676
H 1.577732 1.004970 -1.475657
N 0.026965 0.237823 1.152981
O -0.029028 -0.238366 -1.077744