13
H7 C4 N1 O1
C -0.630288 1.231858 0.011126
C -0.822058 -0.171050 0.621158
C 0.416093 -0.670810 -0.048870
C 0.681430 0.703033 -0.674534
H 0.293572 -2.160949 -1.322996
H 0.332125 -1.369596 1.813320
H 0.602356 0.704839 -1.773576
H -0.521960 2.058068 0.736835
H -1.757069 -0.661744 0.870582
H -1.407804 1.482572 -0.738943
H 1.615975 1.199864 -0.383063
N 0.422985 -0.440316 1.407116
O 0.774629 -1.905795 -0.518171