13
H7 C4 N1 O1
C 0.008572 -1.584995 0.153038
C -1.085001 -0.582216 -0.263591
C 0.675612 -0.451034 0.965905
C 0.256648 1.514476 -0.516526
H 0.859193 1.072897 -1.306314
H -0.575667 2.075533 -0.956892
H 0.605731 -0.569967 2.054584
H 0.885375 2.216696 0.056180
H 1.707499 -0.213508 0.683097
H -1.196264 -0.480120 -1.346203
H -2.070739 -0.762534 0.178768
N -0.320943 0.493791 0.389853
O 0.249960 -2.729031 -0.091907