18
H9 C7 N1 O1
O 0.152445 0.178886 -2.422679
C -1.479385 -0.868724 0.536039
C -0.028724 0.183859 -1.316723
N -1.154392 0.195110 1.478628
C 0.202159 0.862621 1.027752
C 1.914385 -0.859480 -0.171343
C 1.068518 0.409628 -0.190875
C -1.349041 0.111748 -0.606222
C -1.110545 1.319851 0.485373
H 2.663474 -0.802854 0.605383
H -0.798159 -1.754867 0.594981
H -2.473224 -1.172901 0.746285
H -1.526571 2.196715 0.512486
H 0.712733 1.226634 1.767932
H 1.322688 -1.740033 -0.175767
H -2.186427 0.191377 -1.308971
H 1.686108 1.226170 -0.372349
H 2.383964 -0.903731 -1.189924