17
H8 C5 O4
O -1.361909 0.810330 -1.809215
C 1.063426 -0.687825 -0.029316
C -0.290875 1.345364 -1.033245
O 0.769537 -1.801128 2.231166
C -0.020777 0.365799 -0.047355
O 0.844371 1.527561 -1.895321
C 0.195609 -1.399232 1.042089
C -0.819426 -0.288437 1.011364
O -0.255555 0.828106 1.611843
H -0.311125 -2.302197 0.543489
H 0.411267 1.164146 -2.710848
H 1.206572 -1.233831 -0.921645
H -2.188064 1.004557 -1.420753
H -0.546956 2.295712 -0.580520
H 1.973293 -0.332464 0.394189
H -1.857626 -0.341986 1.065374
H 1.188228 -0.954478 2.548678