15
H6 C6 O3
O -0.679468 1.207438 -0.996143
C 1.089173 -0.066807 0.903460
C -0.820917 -0.058644 -1.341824
O -1.523469 2.132025 0.911333
C -0.393663 -0.052095 0.964295
O 2.274445 1.107717 -0.741181
C 1.988293 0.061650 -0.248230
C -0.960820 -0.962770 -0.207089
C -0.969978 1.301867 0.369989
H 1.596427 -0.191581 1.804460
H -0.447645 -1.918102 -0.312821
H -0.740204 -0.222706 1.914850
H 2.363796 -0.891145 -0.661160
H -0.783680 -0.268185 -2.321828
H -1.992294 -1.178690 -0.038107