17
H9 C5 N3
N -0.550395 -2.757788 -0.324196
C 0.605044 0.586196 0.372405
C 0.428834 1.378203 1.561984
N 0.637258 -0.865852 0.548636
C -0.185202 -1.566488 -0.331272
C -0.517948 -0.611868 -1.498347
C -0.498893 0.660338 -0.742662
N 0.052604 0.697244 -1.929424
H -0.543139 1.082937 2.070569
H 1.557778 0.895531 -0.119523
H -1.485558 1.032268 -0.367952
H 1.263245 1.317730 2.231787
H -0.384880 -3.173502 0.618524
H 0.310683 2.444230 1.353562
H -0.458224 1.193832 -2.648289
H 0.628226 -1.171427 1.515397
H -0.859460 -1.141582 -2.311237