15
H6 C6 N1 O1 F1
C 0.781575 0.567888 -0.935297
C -0.316223 1.234412 -0.080693
C 0.354689 -0.805961 0.711342
F -3.067620 -0.643497 0.364713
C 0.747444 0.707163 0.634957
O -1.733286 0.917854 0.017070
C -1.857309 -0.438975 0.480370
N -0.952429 -1.143056 1.029188
C 0.703253 -0.905437 -0.790694
H -0.019968 -1.560677 -1.322422
H -0.307606 2.401010 -0.244566
H 1.082853 -1.312642 1.450654
H 1.772161 -1.422102 -0.944117
H 1.492883 1.254012 1.244768
H 1.319565 1.150025 -1.615251