17
H8 C6 O3
O -1.987957 0.001354 0.366746
C -0.463350 -1.095494 -1.083031
C 1.412259 0.448824 -0.909748
C -1.234031 -1.158450 0.204136
C -0.026529 0.415718 -0.999910
O -0.194707 1.013139 1.449531
C -0.855932 0.895637 0.272078
C 0.849514 0.355776 1.925404
O 1.551008 0.756211 2.842927
H -1.255053 -1.839115 0.936573
H -1.188836 -1.308550 -1.909033
H -0.381830 1.040808 -1.857825
H 1.827614 1.038887 -0.152672
H 0.991719 -0.683037 1.503696
H 0.309047 -1.791970 -1.128389
H 1.974931 0.033586 -1.593369
H -1.327871 1.876655 0.132879