19
H10 C7 O2
C 1.506522 -0.023244 0.681492
C -0.031998 -1.322954 -0.674227
C -1.093803 -0.124134 0.279376
C 0.267897 -0.051157 -0.263744
C 0.084128 1.261794 -1.027896
C 0.842243 -0.857983 1.811769
O -0.383949 2.288206 -0.298363
C -1.413417 1.321033 -1.292559
O -0.613902 -0.480565 1.543848
H -0.719538 -1.526564 -1.478400
H -2.089054 -0.216474 0.279286
H 2.389735 -0.520952 0.327305
H -2.138705 1.960086 -1.276321
H 0.523368 -2.169599 -0.391854
H 0.824353 1.547960 -1.800889
H 1.101829 -0.568594 2.806308
H -1.620572 0.504160 -2.053991
H 1.664518 0.950586 1.067587
H 0.900334 -1.971608 1.761264