13
H5 C6 N1 O1
N 0.568839 1.117270 1.620706
C -1.229481 -0.559346 0.047091
C 0.118414 -0.031038 -0.503129
C -1.294231 -0.076544 1.201137
C 0.674580 -0.817702 -1.645797
C -0.685515 0.710479 2.051580
O -0.000268 0.411496 -1.876053
C 0.915672 0.795569 0.426087
H 1.759481 -0.821114 -1.766057
H 0.139058 -1.661997 -2.020357
H 1.922502 1.075065 0.125508
H -1.083398 0.997087 2.947387
H -1.805639 -1.139242 -0.608130