20
H11 C7 N1 O1
C -0.617623 -0.814797 -1.699635
N -1.549295 1.388093 0.576562
C -0.323709 -0.657308 1.642340
C 0.841241 -0.349489 -1.677391
C 0.001457 -0.461055 -0.385783
C 1.125367 0.920853 -2.433365
C -0.782235 0.302506 0.547466
C 0.104530 -0.020572 3.047827
O 0.678733 -1.153635 0.775638
H 1.624356 -1.062834 -1.718726
H 0.709703 0.903633 2.794438
H -1.006153 -1.468400 1.919735
H -2.230306 1.280585 1.309186
H 1.246821 0.708992 -3.503812
H 2.022567 1.403386 -2.105973
H -1.383925 -0.221386 -2.002050
H 0.782966 -0.713498 3.611513
H -0.811525 0.194845 3.701603
H 0.289749 1.711992 -2.345819
H -0.722730 -1.891888 -2.053791