21
H12 C8 O1
C -1.703433 -0.185741 1.546220
C -0.240768 -0.116731 2.181720
C 0.117665 -0.889359 0.826497
O 0.779124 0.948156 -0.514231
C 1.998251 0.633644 -2.451794
C -0.325671 0.098835 -0.286155
C -1.345750 -1.434427 0.706021
C 1.765011 0.413946 -1.036208
C -1.679421 0.706033 0.345498
H -1.485364 1.809295 0.552504
H 1.081790 0.425113 -3.006275
H -1.733416 -2.279329 0.415404
H 0.918010 -1.546808 0.789225
H 2.794295 -0.110237 -2.856300
H -0.501201 -0.341265 -1.361525
H -2.587369 -0.213188 2.152551
H -0.164475 -0.755335 2.993760
H 2.304439 1.639764 -2.578876
H 2.379846 -0.230597 -0.421009
H -2.547107 0.610642 -0.273128
H 0.175530 0.817581 2.276092