14
H5 C7 N1 O1
C 0.525379 1.006014 1.137039
C 0.061306 -1.203130 -1.492631
C 1.652280 1.218976 1.536607
C -1.691915 0.407851 0.419674
C 0.583140 -0.402497 -0.481833
C -0.254952 0.396199 0.401902
O 2.364176 0.466077 0.565537
C -0.422284 -1.977955 -2.235362
N 1.948921 -0.258855 -0.434795
H 2.203630 1.724363 2.242345
H -0.842112 -2.654921 -2.972240
H -2.008073 0.013624 1.354164
H -2.088028 -0.185945 -0.365954
H -2.031471 1.450174 0.325545