18
H9 C7 N1 O1
C -1.528689 -0.873797 0.333760
C 0.367065 -2.060895 -0.726005
O -1.129312 -1.943143 -0.624387
C -0.126760 2.447489 -0.258554
N -1.042359 2.931555 -0.897055
C -0.046559 -0.771531 -1.072371
C 1.002624 1.852307 0.305362
C 0.624173 0.572790 1.042606
C -0.296351 -0.150592 0.133203
H 1.432011 2.578624 1.042111
H 0.655705 -2.730225 -1.568976
H 0.036966 0.785444 1.983790
H 0.019992 -0.342557 -2.132006
H 1.504681 -0.047749 1.413319
H 1.821523 1.671407 -0.437995
H -2.453669 -0.316502 -0.017112
H 0.854655 -2.294702 0.158259
H -1.695706 -1.307921 1.322046