21
H12 C7 O2
C -0.455669 -0.768599 -0.972784
C 0.857552 -1.273035 -0.288244
C -1.888371 0.824340 0.650956
O -1.808333 -0.422357 1.340617
C 1.493272 0.929954 0.862663
C -0.830125 -0.098318 0.352793
C -0.288206 0.166903 -2.126471
C 0.662454 -0.282389 0.896353
O 0.761648 -0.956253 2.208740
H -1.120698 0.799619 -2.312709
H 1.395346 1.476437 -0.039760
H 1.744064 -1.104352 -0.879971
H -0.026303 -0.402849 -3.062051
H -1.615756 1.702913 1.198059
H 2.544001 0.640624 1.048503
H -0.041860 -0.680626 2.633862
H 0.583582 0.856459 -1.990678
H 1.246927 1.611927 1.710630
H -2.753104 0.858470 -0.097959
H -1.207454 -1.587292 -1.218166
H 0.747043 -2.291577 0.085647