23
H14 C9
C 1.811120 -0.840679 0.497542
C 0.326296 1.041044 1.513210
C -2.267049 0.489799 -0.914320
C -0.709827 -0.125909 -0.495708
C 0.850240 -0.861214 -0.674731
C 1.800622 0.512865 1.256517
C -0.695411 -0.008909 0.928050
C -1.913787 -0.931348 -1.023186
C 0.400881 0.376190 -1.386132
H 0.887384 -1.734683 -1.285725
H 2.217209 1.269316 0.694877
H -1.266228 -0.563053 1.564775
H -2.261306 1.088834 -1.815640
H 0.206088 0.266701 -2.458399
H -2.456460 -1.585751 -0.307168
H 0.931467 1.292619 -1.158203
H -2.932981 0.826981 -0.154762
H 0.158819 1.934789 1.107918
H 1.555309 -1.660211 1.159188
H -1.760397 -1.320407 -2.036374
H 2.230846 0.408598 2.256403
H 0.086012 1.073277 2.596662
H 2.801172 -0.948875 0.135239