17
H8 C6 N2 O1
O 1.361672 1.583147 -0.342414
C -0.669988 0.500063 -0.851461
C 1.612301 0.404353 0.425351
C 0.627554 -0.627918 -0.223032
C 0.025028 1.764268 -0.643674
N 1.501149 0.068328 3.072168
C 1.441921 0.193915 1.888790
C -1.578895 -1.568727 0.038626
N -0.692537 -0.398360 0.131687
H -1.790241 -1.850996 -1.050535
H -0.000064 2.391226 -1.545852
H -1.116500 -2.413574 0.483215
H 1.039674 -1.589359 -0.458513
H -1.389068 0.268893 -1.743423
H 2.619924 0.226005 0.220923
H -0.438084 2.360260 0.138304
H -2.553867 -1.311541 0.459827