23
H14 C7 O2
C -0.326595 -0.293825 -0.236717
C 1.827331 0.847219 0.595114
C 1.842381 1.940558 -0.527857
O 0.272208 -0.699495 -1.415359
C -1.493700 -1.281539 0.137874
C 0.941450 0.962059 1.805713
C 0.760851 -0.210186 0.726285
C -2.305871 -1.751673 -1.064085
O -0.960214 0.933285 -0.478956
H 0.842458 2.247910 -0.766585
H 0.201851 1.660283 1.764886
H -3.232286 -2.305434 -0.765379
H 2.871819 0.488649 0.845900
H 1.345045 0.787128 2.721482
H 2.364783 1.477064 -1.366434
H -1.473577 1.233258 0.308947
H -1.718857 -2.317883 -1.723228
H -1.098755 -2.095081 0.563582
H 2.445743 2.792344 -0.234303
H 1.059562 -1.182985 1.156387
H -2.758321 -0.881717 -1.684701
H -2.131583 -0.815204 0.889785
H 0.724323 -1.534719 -1.252304