21
H12 C7 O2
O 1.380800 0.082202 0.920516
C 1.955233 0.850869 -1.329261
C -1.983439 0.301386 1.548294
C -0.937344 -0.504414 0.739138
C -1.589969 -1.441142 -0.291192
C 0.417154 0.835960 -1.101907
C 0.232545 0.359115 0.257954
O 0.030186 1.718028 -0.059677
C 2.433644 -0.003122 -0.141725
H -2.181457 -2.160394 0.116375
H -0.736186 -1.974754 -0.833559
H -2.424636 1.021537 0.975897
H 2.329546 1.883862 -1.370058
H 2.663463 -1.016878 -0.429143
H -2.136058 -0.806782 -1.055593
H -2.765055 -0.394838 2.010964
H 3.396453 0.412947 0.298542
H 2.195285 0.454737 -2.307317
H -0.357814 0.765487 -1.866645
H -1.511758 0.826634 2.366916
H -0.410592 -1.210444 1.551512