21
H12 C8 O1
C 0.095965 0.267075 -0.445108
C 0.141079 1.814535 0.129444
O -1.891829 -2.502231 0.830068
C -0.645106 -0.703041 0.479282
C -1.173616 0.362951 -1.115219
C 2.149526 -0.803659 -1.633820
C -0.686409 -2.074687 0.181390
C 0.948688 1.956071 1.355575
C 1.258764 -0.312287 -1.117827
H -1.907667 -3.520161 0.678524
H 1.982573 1.703075 1.191013
H -1.045203 0.775797 -2.085301
H 0.532392 2.358513 -0.739223
H -2.043407 0.544230 -0.860074
H 0.888590 3.072686 1.641698
H -0.955442 -0.325092 1.399050
H -0.875181 2.193387 0.320398
H 0.183176 -2.563039 0.651461
H 3.033742 -1.340506 -2.141679
H 0.632423 1.390906 2.183943
H -0.623076 -2.294585 -0.903646