16
H7 C5 N3 O1
C -1.909541 1.058549 -0.846005
C 0.198682 -2.206235 0.882537
C 0.207449 -0.058078 0.001424
N 2.301265 1.336078 0.022214
N 0.253616 2.291104 -0.763378
N -0.480020 -1.126781 0.208071
C 1.679977 0.207577 0.296436
C -0.473592 1.132721 -0.540245
O 1.573748 2.264556 -0.490308
H 2.232229 -0.616788 0.735813
H -2.223988 2.096394 -1.149361
H 0.517832 -1.967891 1.912759
H -2.440279 0.795478 0.064114
H 1.139401 -2.503783 0.394725
H -2.089887 0.303128 -1.635486
H -0.486899 -3.006021 0.906685