21
H12 C8 O1
C -1.121989 -1.354322 -0.585868
C -1.304715 -0.474222 1.774551
C -0.138358 -1.750347 -1.720248
C 0.872929 1.608426 1.177120
O 0.068266 2.627258 0.489561
C -0.549961 -0.440577 0.483565
C 1.409440 0.957628 -0.776459
C 0.483803 0.472986 0.379498
C 1.430914 2.268104 -0.006566
H 2.024996 3.119366 -0.123139
H -2.183129 0.121757 1.761360
H 0.184276 -0.962826 -2.320516
H -0.639209 -2.458896 -2.396802
H -1.404840 -2.280733 -0.089888
H -1.625698 -1.442458 2.023719
H 1.098489 1.702016 2.220443
H -1.999559 -0.891395 -0.951688
H -0.701619 -0.111449 2.625075
H 0.990902 0.955058 -1.796672
H 0.738001 -2.168231 -1.331272
H 2.367073 0.502892 -0.835774