17
H10 C5 O2
C -0.242991 0.039475 2.751670
C 1.675781 0.026293 -2.164855
C 0.305892 0.561757 -1.880051
O 0.015569 0.004014 0.354377
C -0.454679 -0.249512 -0.936957
C -0.912286 -0.120683 1.374953
O 0.675631 0.154036 -3.147164
H -1.016317 -0.053531 3.517285
H 2.438154 0.633602 -2.040228
H 0.114907 1.591647 -1.823337
H 1.968949 -0.978766 -1.952040
H 0.462582 -0.749880 2.877461
H -0.512987 -1.327021 -1.143262
H -1.797097 0.550957 1.192740
H -1.416248 -1.124852 1.301794
H -1.517230 0.094868 -1.007818
H 0.212397 0.947638 2.725420