12
H4 C4 N2 O2
O -0.714785 -0.545063 0.425699
C -1.652847 0.339453 -0.151167
C -1.196730 1.480517 -0.858451
N 0.131844 1.720440 -0.993814
C 1.464197 -1.257807 0.634428
O 0.883590 -2.416164 0.664475
C 0.511459 -0.283753 0.140417
N 0.975467 0.860382 -0.522593
H 1.727548 -0.916050 1.698073
H -1.922505 2.162809 -1.207068
H -2.656297 0.081460 0.109570
H 2.449062 -1.226227 0.060445