16
H7 C5 N3 O1
C 0.885608 1.705678 1.250516
C -1.197760 -1.571977 -0.817917
O -2.958842 -0.574261 -1.351448
C 0.099773 -1.595404 -0.658862
C 0.407738 -0.150353 -0.547561
N -2.045114 0.401400 -0.959317
N -2.458011 -1.909143 -1.180212
C 1.135499 0.225566 0.703526
N -0.942354 -0.113747 -0.606624
H 2.225658 0.064792 0.518302
H 1.481773 1.903365 2.113245
H 0.871412 -0.439562 1.506653
H 1.070333 2.412455 0.451933
H -0.190294 1.723368 1.538707
H 0.845451 0.333556 -1.390644
H 0.769146 -2.415716 -0.570288