19
H10 C8 O1
C 0.457649 -0.616856 0.872145
C -0.637077 -0.373576 -0.144122
O 2.542578 2.115650 1.039541
C 1.376218 -0.093513 -0.514022
C 0.250694 0.965796 -0.553106
C -2.038579 -0.503138 0.113107
C 0.243030 1.351006 0.902475
C 0.185850 -1.023507 -1.274972
C 1.623543 1.484102 0.757753
H -2.642674 -0.281253 -0.786397
H -2.413550 0.122334 0.942808
H 0.257375 -2.126957 -1.265217
H -0.431368 1.963741 1.313865
H 0.516688 -0.518862 1.847264
H -0.047582 -0.667832 -2.334795
H 0.029766 1.603954 -1.367636
H 2.345393 -0.123766 -0.820188
H -2.349188 -1.535105 0.405553
H 0.731226 -1.742250 0.865910