17
H8 C7 N2
C 1.414725 0.887136 0.121828
C -1.035681 -1.676495 0.545560
C -0.191837 -0.439880 0.222788
C -0.821345 0.854510 -0.283258
C 0.563592 0.436350 1.271587
C 1.084530 -0.442385 -0.671424
N 0.142522 1.678671 0.550647
C -0.626158 1.482274 -1.612771
N -0.544110 2.012632 -2.611847
H -1.638794 -1.955923 -0.297625
H 0.807272 -0.547309 -1.779253
H 0.768309 0.361946 2.303232
H 2.327194 1.496161 0.205008
H -1.710727 -1.410939 1.435185
H 1.756501 -1.283239 -0.406662
H -1.870461 1.025439 0.114331
H -0.425559 -2.478967 0.892677