14
H5 C5 N2 O1 F1
C -2.421239 -0.567712 0.202164
C 2.471425 -0.434676 -0.185177
N -1.120177 -0.117309 0.093340
C 1.114023 -0.101862 -0.086490
O -3.367339 0.155028 0.241175
C -0.689391 1.176558 0.077479
N 0.678622 1.247420 -0.088962
C 0.047485 -0.916566 0.037071
F -1.463625 2.236954 0.100435
H 2.856877 -0.658184 -1.086654
H 1.230022 2.038856 -0.152400
H 3.114925 -0.470736 0.611707
H -0.034302 -1.944715 -0.005797
H -2.417295 -1.643062 0.242095