20
H11 C6 N1 O2
O -0.727384 -1.588743 0.241686
C -1.906328 1.073735 -1.944153
C -0.470919 -0.543552 -0.621376
C 0.446373 0.494051 0.013835
C 2.794604 -0.265286 2.498157
C 1.892806 -0.494152 1.392518
O 1.802922 -0.126447 0.143176
C -1.868810 -0.067984 -0.933646
N 1.785210 -1.264983 2.238540
H -1.462137 1.985314 -1.573494
H -2.351408 0.304028 0.064185
H -1.522445 0.808135 -2.926511
H 2.684313 0.749466 2.703641
H 0.018815 -0.922623 -1.546696
H 0.670647 1.267741 -0.686756
H 0.057665 0.921687 0.905524
H -2.996793 1.356708 -2.068505
H -2.469278 -0.962643 -1.281918
H -0.032233 -1.986281 0.527779
H 3.654373 -0.738172 2.854004