20
H11 C6 N1 O2
C -1.485520 -1.482838 0.118022
C -0.975360 1.082077 1.681481
C -0.425973 0.706127 0.297402
O 1.952460 -0.502004 -0.691828
C 0.810003 1.435791 0.009129
N 0.702174 -2.223858 -1.415627
C 1.809418 0.932059 -0.898780
C 0.869551 -1.208726 -0.739211
O -0.131886 -0.727465 0.256683
H 0.920243 2.410319 0.347242
H -1.105344 0.929900 -0.567177
H -0.994024 2.161400 1.721728
H 2.733520 1.363041 -0.806753
H -1.250084 -2.465148 -0.207949
H -2.179166 -1.022693 -0.614992
H -2.007876 0.806237 1.766239
H 1.648930 -2.437628 -1.852423
H -1.941697 -1.461970 1.112544
H 1.441388 1.054287 -1.972989
H -0.390756 0.651098 2.457244