16
H7 C7 N1 O1
O -1.018910 -1.513200 0.604465
C -0.071914 0.152288 -0.484330
C -1.667960 -1.321051 -0.710232
C 0.852150 1.238861 -0.938267
C -0.040801 -0.475537 0.732082
C -1.126500 -0.312951 -1.315070
C 1.376676 1.349385 0.434263
C 0.603030 -0.524886 1.927891
N 1.111674 -0.780844 3.079585
H 2.381119 1.033783 0.616306
H -1.341259 -2.200426 1.220618
H -2.592018 -1.963824 -1.029592
H 1.050339 2.073030 1.114031
H -1.296345 0.091261 -2.289204
H 0.253721 2.167992 -1.224541
H 1.526982 0.986118 -1.738012