17
H8 C5 N4
N 1.062247 -1.012166 -1.701079
C -0.151095 -1.785205 0.830783
C -0.752372 0.678950 1.159002
N -0.801339 1.876904 0.714639
C -0.129622 -0.410201 0.345265
N -0.301839 2.163741 -0.493316
C 0.446230 -0.049681 -0.883377
C 0.337103 1.265310 -1.287373
N -1.274673 0.287596 2.274040
H 0.712571 1.573104 -2.197647
H -0.362359 3.058911 -0.763573
H 1.616843 -0.624524 -2.474970
H 1.566432 -1.693011 -1.274286
H -1.640552 1.137003 2.823906
H -0.521255 -2.469556 0.071896
H -0.724141 -1.882689 1.750618
H 0.917838 -2.114493 1.105483