20
H12 C7 O1
C -1.204388 1.103867 -1.453688
C -1.727776 -0.226481 -1.765140
O 2.915098 0.041267 0.906842
C 1.610228 -0.410191 1.239851
C -0.438455 -0.240042 0.652359
C 0.799037 -1.031255 0.085033
C -1.497679 0.244670 -0.297467
C 0.549175 0.719045 1.389857
H 0.786239 -2.072325 0.018379
H 0.769042 1.559988 0.759776
H 1.600956 -1.071829 2.127923
H 1.057477 -0.589264 -0.963485
H -2.389661 0.561088 0.243429
H -1.010320 -0.945598 -2.062819
H -0.887437 -0.902220 1.419302
H 3.477444 -0.711209 0.703020
H 0.292926 1.027418 2.375042
H -1.836540 1.936063 -1.683627
H -2.712198 -0.345033 -2.090087
H -0.153172 1.352046 -1.604476