17
H9 C6 N1 O1
C -0.787270 1.153587 0.910201
C 0.035305 -0.465973 -1.064490
C 0.114515 0.863174 -0.330327
N -1.978784 -0.570600 2.349533
O 1.012829 -0.446932 -2.093748
C -1.499059 0.149890 1.695749
C 0.263721 -1.712462 -0.268281
C 0.782637 1.163413 0.997355
H 1.263986 0.328814 1.410708
H 1.316302 -1.612123 0.170569
H 0.673179 0.096343 -2.844782
H 1.214229 2.111867 1.074190
H 0.279683 -2.554591 -0.952654
H -1.254351 2.114872 0.988895
H -0.974693 -0.531222 -1.533612
H 0.000341 1.744713 -1.025556
H -0.462565 -1.832807 0.516244