20
H11 C7 N1 O1
C 0.695152 0.069317 1.084296
O -1.568324 0.816404 -0.135993
C 2.116091 0.498915 0.960468
C -1.403131 0.846473 -1.510993
C -0.955341 -0.519905 -1.955646
N 1.763473 -0.718497 1.602410
C -0.275284 -1.118690 -0.740621
C -0.378246 0.378251 1.842242
C -0.405456 -0.025805 0.325648
H -0.705828 1.598399 -1.759681
H -0.598155 1.350472 2.013675
H 0.795310 -1.410411 -0.923788
H -0.831528 -0.325843 2.507866
H -0.804041 -2.031484 -0.378973
H -0.322208 -0.527420 -2.888854
H 2.437891 1.407766 1.512167
H 2.679168 0.368066 0.019658
H 1.934414 -0.557442 2.605934
H -1.798576 -1.199429 -2.206969
H -2.375378 1.100877 -1.972836