16
H7 C6 N3
C 0.608850 0.972039 0.534608
C -1.544003 0.186552 1.598058
N 1.969670 -1.022055 -2.005436
N 0.097765 -0.890186 -0.633552
C -0.426201 0.005462 0.359566
N -2.420396 0.956897 0.634193
C -1.900329 -0.435384 0.378765
C 1.567734 0.784226 -0.278556
C 1.257941 -0.405240 -0.944786
H 2.998352 -0.848854 -1.979377
H -1.462543 0.153429 2.602615
H 2.581713 1.294504 -0.445153
H -2.314960 -1.342585 0.033267
H -3.348446 0.761930 1.002625
H 0.580003 1.868996 1.244953
H 1.754862 -2.039724 -2.101786