16
H7 C5 N3 O1
C -0.536511 -0.229566 0.203150
N -0.113486 0.975120 -0.088512
C -1.609305 -2.660602 0.726186
O -0.418638 -2.504564 0.159697
C 1.718098 2.373042 -0.879808
C 1.208020 0.922506 -0.541948
N -1.749060 -0.257169 0.814892
C -2.288374 -1.430406 1.102550
N 0.208922 -1.277309 -0.095759
H -3.184237 -1.531643 1.617007
H 1.521003 3.135559 -0.003807
H 1.914228 0.577402 0.216211
H 1.405806 0.337464 -1.361596
H 1.131111 2.767416 -1.658230
H -1.959096 -3.552592 0.893963
H 2.751516 2.355324 -1.103994