18
H9 C6 N1 O2
C -1.540190 -0.906905 0.169626
N -0.526033 1.019127 -1.988026
C -0.207868 -0.108909 0.275771
C -0.376570 1.116444 1.202863
C 0.217806 0.400683 -1.128687
O 2.392550 0.495603 -2.209041
C 1.633781 0.130996 -1.266489
O 2.068604 -0.561838 -0.140785
C 1.026724 -0.965962 0.656808
H -1.178790 1.794670 0.848130
H 1.355069 -0.794797 1.700811
H 0.838935 -1.949660 0.518963
H -1.426100 -1.722884 -0.525295
H -1.741803 -1.319895 1.234811
H -2.386719 -0.301039 -0.096048
H -0.675569 0.778369 2.206799
H -0.010168 1.246833 -2.781737
H 0.536349 1.649184 1.321539