19
H10 C6 N2 O1
C 0.178658 0.136887 -1.738618
C 0.325691 2.118876 -0.086543
C 0.336746 -1.170208 1.470088
C 0.277607 0.754146 -0.386733
N 0.426090 2.414360 1.111824
C 0.358263 0.224100 0.936273
C -1.181528 -0.527519 -2.058060
O 0.228827 -1.260187 2.863616
N 0.416020 1.160057 1.789788
H 0.193642 2.899303 -0.885622
H -1.179520 -0.923429 -3.007619
H -0.360185 -0.520533 3.184780
H -0.594498 -1.647009 1.003950
H 1.357303 -1.106415 2.592953
H 1.113441 -1.793428 0.934891
H -1.909743 0.276405 -1.996717
H 0.994806 -0.621331 -1.812823
H -1.397614 -1.321371 -1.407394
H 0.415972 0.907297 -2.508039