11
H5 C3 N1 O2
O -0.475571 -1.412255 2.201360
C 0.044599 -0.028703 0.418908
C 0.741722 1.119222 -1.453174
O -0.109162 0.161594 -0.911015
C -0.760094 -1.004773 0.929870
N -1.717876 -1.458818 0.292098
H 0.146927 2.169470 -1.430881
H -1.147744 -2.124472 2.428022
H 1.676479 1.249043 -0.969479
H 0.842117 0.832967 -2.468224
H 0.758601 0.496708 0.962518