23
H14 C9
C 2.982758 -0.142755 -0.036084
C -0.176882 1.089543 0.046200
C -1.506113 -0.691355 1.304291
C -2.570054 1.082293 -0.053190
C -1.194810 -0.638479 -1.183794
C 0.850000 0.824509 0.764564
C -1.438017 0.181207 0.118523
C 2.006333 0.241386 0.326517
C 4.191765 -0.768197 -0.504406
H -0.640530 -1.289421 1.423085
H -0.212439 1.847688 -0.649605
H -2.619448 1.682206 -0.936837
H 4.888700 -1.085427 0.268234
H -2.043864 -1.327288 -1.336578
H -0.290605 -1.237601 -1.119613
H -1.649749 -0.105026 2.194379
H -2.672379 1.757633 0.816026
H -1.066583 -0.020052 -2.124259
H -2.407966 -1.357088 1.202566
H -3.611412 0.488238 -0.105279
H 0.539906 1.090985 1.820250
H 3.943605 -1.623772 -1.124914
H 4.697786 0.000784 -1.110119