17
H8 C6 O3
O -0.344570 -2.041208 0.822417
C -0.010552 1.091232 -0.858021
C -0.135990 0.367527 1.406739
C 0.026868 -0.341232 -0.858050
C 0.209890 -1.259862 -2.030914
C -0.192288 1.523733 0.492141
O -0.537026 2.801066 0.843737
C -0.231081 -0.778356 0.358851
O 1.067660 0.401537 2.206721
H -1.338588 -2.248405 0.560122
H 0.906971 -2.047390 -1.782711
H 1.531485 -0.369249 2.105858
H 0.598142 -0.694745 -2.885339
H -0.031142 3.119041 1.456169
H -0.890292 0.410093 2.125404
H -0.712228 -1.650640 -2.327072
H 0.082757 1.716834 -1.636084