15
H7 C5 N1 O2
O -1.061395 0.460761 0.905590
C 0.355680 0.750121 0.777128
C 0.693175 1.363064 -0.474015
C -0.787449 -1.007989 0.777958
O -1.954580 -1.348717 -1.289605
N 0.373118 0.847387 -1.714488
C -1.454731 -1.236118 -0.432216
C 0.691065 -0.764863 0.856138
H 0.401336 -0.023031 -1.849998
H 1.281151 2.155143 -0.536107
H 1.166458 -1.111141 1.820960
H 1.362970 -1.152506 0.053354
H -0.467587 1.343124 -2.150364
H 0.692070 1.286685 1.655749
H -1.291269 -1.561919 1.599928