19
H10 C7 O2
C 0.819104 -1.395720 1.892846
C -0.788799 0.689685 -0.253869
O 1.471878 -0.066754 -0.770777
C 0.107121 -0.479043 -0.301184
C 0.189686 -1.818778 0.531170
O 0.220119 -1.505098 2.902032
C 0.404813 -0.374967 -1.706764
C -0.514061 0.878229 -1.773538
C -0.360252 1.823410 0.757872
H -1.778849 0.366102 -0.059710
H -0.427454 1.474630 1.797700
H 1.916399 -1.090512 1.843285
H -1.470767 0.682785 -2.368562
H 0.010235 1.787909 -2.111726
H -0.846293 -2.157221 0.809998
H -1.068107 2.651582 0.595589
H 0.677251 -1.033200 -2.452572
H 0.637822 2.085677 0.583833
H 0.800184 -2.518728 0.084406