16
H7 C5 N1 O3
O -1.830280 0.317564 0.255834
C 1.392547 1.177909 -0.186884
C 0.912376 -0.280858 -0.032354
O -1.504799 0.321047 2.509106
C -0.020588 -0.665618 -1.158148
O 0.306327 -0.941495 -2.247899
C -1.521885 -0.552325 -0.827836
C -1.020983 0.038661 1.425885
N 0.199075 -0.558817 1.222969
H -1.874467 -1.595729 -0.541784
H 1.763039 -0.968900 -0.042471
H 1.928010 1.217259 -1.231399
H 2.128759 1.435946 0.587576
H 0.657639 -0.602562 2.075595
H 0.576694 1.881848 -0.179409
H -2.091444 -0.223882 -1.628775