18
H9 C6 N1 O2
C -0.307752 0.496584 -2.098279
C -0.904504 -0.177286 0.498863
N -1.711207 -1.153242 0.198421
O 0.983336 0.848058 1.383837
C 1.520841 -1.106437 0.022024
C -0.345155 0.810354 -0.637145
O -1.146332 0.427028 1.925861
C 0.037161 0.947043 2.229949
C 0.543872 -0.011674 0.317755
H -1.292655 0.707767 -2.585974
H -0.585786 1.824721 -0.381338
H 0.453665 1.071809 -2.569936
H -2.535880 -1.299670 0.834643
H 2.497089 -0.773983 -0.244149
H -0.012236 -0.595884 -2.217240
H 1.613150 -1.739558 0.943024
H 0.099333 1.447220 3.149354
H 1.093080 -1.722846 -0.769653