18
H9 C6 N1 O2
C -0.455336 -2.253616 0.069569
C 1.327077 0.707056 0.785776
C -1.137852 1.598136 0.810547
C 1.189391 1.710107 -0.250449
N -1.942176 2.183010 1.407575
C -1.339415 -1.071518 -0.425535
O 1.831388 1.349852 -1.462527
O -0.417575 0.045565 -0.859463
C -0.058231 0.925954 0.151977
H 0.278162 -2.520278 -0.735366
H 1.383959 1.079051 1.823663
H 1.285496 0.771275 -1.980985
H -1.860411 -1.349026 -1.343191
H 0.085610 -2.027952 1.031748
H 1.188638 2.755148 -0.120808
H -1.185676 -3.009523 0.268314
H -1.969937 -0.730182 0.294257
H 1.796905 -0.163049 0.534911