21
H12 C7 O2
C 2.541032 -0.131488 2.467611
C 0.883518 0.174100 0.479167
O -0.632410 0.462195 -1.325169
C 1.917660 -1.500552 2.164842
C -0.556811 0.150581 0.096055
C -1.957168 0.748533 -3.266126
O 1.779820 0.487030 -0.273613
C -2.029485 0.438661 -1.779966
C 1.039804 -0.242337 1.946859
H -2.979353 0.756082 -3.671890
H 1.569994 -2.105602 2.953993
H -2.580375 1.229275 -1.176844
H 2.247716 -2.024164 1.310048
H -1.505149 1.697222 -3.473183
H -2.428845 -0.544924 -1.564675
H 2.636351 0.140460 3.463932
H -1.046848 0.929404 0.687099
H 3.218153 0.242850 1.751452
H -0.997154 -0.816472 0.364719
H -1.431362 -0.024470 -3.774904
H 0.310905 -0.066375 2.620571