19
H10 C6 N2 O1
C -0.498274 0.097807 0.996803
C 1.576010 1.387118 1.474582
C -0.646848 0.471679 -1.363861
C 0.817273 0.278396 -0.809725
N 0.653970 0.700935 0.620895
N -2.244206 -1.240078 -0.227768
C -0.932252 -0.577455 -0.357851
O -1.052024 0.123268 2.136078
C 0.429532 -1.239804 -0.737522
H -2.418443 -1.360979 0.776211
H 1.699196 0.680686 -1.304193
H 1.074873 1.450083 2.413065
H -2.281755 -2.084557 -0.830072
H 1.767053 2.412066 1.127991
H 0.974026 -1.868050 -0.050770
H 2.538889 0.879176 1.547458
H 0.372027 -1.708261 -1.698378
H -1.091507 1.458420 -1.283657
H -0.737528 0.139561 -2.429258