15
H6 C6 O3
O 0.815906 -0.598304 -0.766194
C -0.378040 0.687589 0.832802
C -0.216296 -0.979158 -1.402967
O -0.156487 -1.680316 -2.383690
C 0.781055 0.154309 0.436641
O -2.436657 1.504880 0.149402
C -1.611679 -0.391984 -0.968891
C 2.083348 0.183708 1.053306
C -1.573511 0.671835 0.058129
H -0.363323 1.285046 1.757189
H 2.471143 -0.857739 1.275570
H -2.163874 -1.243593 -0.534251
H 2.073264 0.718974 1.980003
H -2.132402 -0.102207 -1.868754
H 2.807571 0.646983 0.381701