16
H7 C4 N3 O2
C 0.901329 1.352792 -0.373652
O -2.078363 0.067768 -1.000441
C -1.278219 1.065571 -1.465391
C -0.158258 -2.112793 1.260261
O 1.136661 2.445660 -0.931009
N -1.151131 -1.416219 0.576775
C -1.100314 -0.391467 -0.184833
N 1.754495 0.904142 0.620964
N -0.190698 0.589342 -0.519464
H -1.534200 2.108874 -1.249648
H -0.568900 -2.599152 2.134494
H 0.607903 -1.458992 1.628724
H 0.356708 -2.902119 0.677842
H 2.590471 1.449898 0.696228
H 1.771207 -0.134050 0.708200
H -1.058688 1.030742 -2.579024