25
H16 C9
C -0.461355 -1.095559 -0.088094
C -2.545334 -1.395595 0.540770
C -1.861836 -0.383665 -0.473331
C 1.035703 1.311373 -1.343391
C 1.468616 -0.215463 -1.436678
C -1.156175 -1.649248 1.248196
C 1.713821 1.934691 0.941489
C 0.730967 1.177263 0.196524
C 0.812330 -0.329224 0.037232
H -2.118001 -0.450752 -1.496534
H -3.400402 -1.057441 1.146640
H -0.274815 -2.039902 -0.713489
H -0.253770 1.491076 0.612184
H 2.566739 -0.361282 -1.422605
H 2.789043 1.695995 0.660073
H 0.931404 -0.780152 -2.165625
H 1.637611 3.025543 0.907349
H 1.847027 1.963688 -1.641620
H 1.501084 -0.811192 0.790826
H -1.064873 -0.941540 2.099059
H 1.666152 1.677949 2.088262
H -1.931944 0.635789 -0.122712
H -0.948938 -2.652562 1.588409
H 0.226074 1.536221 -1.932435
H -2.909128 -2.286003 -0.020441