16
H8 C4 N4
C 0.700440 -1.923991 -0.575511
N -0.778679 2.513953 0.867908
C -0.782998 -0.013493 -1.461785
C -0.609276 1.402869 0.218542
N -1.185049 1.139913 -1.081445
C 0.127923 0.241931 0.538918
N -0.004703 -0.625488 -0.507710
N 0.790567 -0.121810 1.698341
H -1.856146 1.804649 -1.509123
H 1.859672 -0.081052 1.629760
H 1.794359 -1.792820 -0.474809
H 0.458073 -2.395016 -1.574793
H -1.159285 -0.449368 -2.366482
H 0.575905 0.378415 2.516573
H -0.264250 2.496855 1.804487
H 0.333463 -2.575565 0.277142