18
H9 C6 N1 O2
C 0.573875 -0.025335 -0.441714
O -0.477254 -0.704507 1.782573
C 1.049036 -1.431654 -0.028923
C -1.707220 -0.377633 1.348830
C -1.840009 0.441834 0.076877
C 0.629579 -0.451872 1.043687
C 1.531741 0.959385 -0.998184
N -0.751569 0.000050 -0.953954
O -2.662816 -0.639673 2.021015
H 1.191142 2.016730 -0.677303
H 2.499230 0.906072 -0.529188
H 0.291925 -2.189878 -0.213709
H 1.623684 0.876686 -2.084110
H 2.034567 -1.685316 -0.182781
H 1.528481 -0.007468 1.704730
H -2.821308 0.219937 -0.339970
H -1.810307 1.571332 0.228422
H -0.882807 0.521337 -1.756310