21
H12 C9
C 2.417802 -2.125393 -0.727260
C 1.523497 -1.331340 -0.029745
C -0.046520 0.736949 0.249524
C -1.109076 0.015082 1.076593
C -2.141794 1.962152 0.646347
C 3.196634 -2.771045 -1.406548
C -1.068438 1.635822 -0.356740
C 0.828367 -0.125352 -0.732590
C -1.976257 0.638830 0.798801
H -1.744548 2.606544 1.464438
H 1.658437 0.497098 -1.115302
H 3.794720 -3.446502 -1.922479
H 0.269962 -0.500961 -1.550124
H -3.060485 2.242209 0.266526
H -2.257535 0.182926 -0.957244
H 0.736859 -1.884487 0.498207
H -1.344360 0.084201 2.256737
H -0.804763 2.254243 -1.201096
H 0.663942 1.202403 0.967255
H -1.651844 -1.026563 0.807777
H 2.115369 -0.846827 0.966910