20
H11 C7 N1 O1
N 0.557716 -1.089983 -1.028409
C -1.275583 0.143641 0.031817
O -1.781034 2.494192 -0.236315
C 1.082773 -0.392209 0.277970
C -1.249363 1.617882 0.407255
C -0.598049 -0.108098 -1.345590
C -0.295665 -0.668478 0.943811
C 1.787174 0.927009 0.197003
C -0.210014 -1.953554 -0.018936
H -0.259073 0.796450 -1.882334
H 2.201363 1.252766 1.154828
H 0.419278 -2.739372 0.390177
H -0.498942 -0.698540 1.962158
H -1.289397 -0.580747 -2.032757
H 1.119775 1.740948 -0.149834
H -2.263926 -0.138321 0.135857
H 1.828340 -1.072084 0.725300
H -1.161319 -2.350217 -0.444393
H 2.601729 0.883315 -0.544369
H -0.715790 1.935386 1.456776