17
H8 C8 O1
C -0.459515 1.130534 0.409735
C -1.811352 -1.797614 1.823513
C -1.391389 -1.163264 0.922160
C 1.448545 -0.255834 0.356276
C 0.983727 1.168223 -0.060432
O 2.284366 -0.757154 1.033211
C 0.449669 -0.762901 -0.745103
C 0.898283 0.542138 -1.499442
C -0.881498 -0.293348 -0.119997
H -1.672399 -0.251350 -0.958458
H -1.055511 1.928272 -0.108518
H 1.512325 2.107690 0.106752
H 0.476508 -1.741993 -1.112103
H 1.839456 0.418785 -1.956005
H 0.131264 0.972245 -2.158608
H -0.636078 1.230276 1.435605
H -2.116404 -2.474683 2.631423