16
H8 C6 O2
C 1.058081 -0.640873 0.614829
O 1.808666 -1.369951 1.348299
C -0.886411 -0.031729 -0.740510
C 1.470862 0.479473 -0.283005
C -1.304096 0.071620 1.261134
C -0.467461 -0.989179 0.476094
O -1.527980 0.963673 0.067891
C 0.406500 0.502550 -1.377976
H 0.199033 1.460449 -1.821030
H -0.790467 0.669643 2.109465
H -0.721555 -1.946715 0.549724
H -2.239094 -0.353616 1.711349
H 2.465343 0.394585 -0.579840
H -1.593726 -0.454618 -1.473990
H 1.467209 1.381274 0.338321
H 0.655099 -0.136598 -2.200747