21
H12 C7 O2
C -0.722187 0.283635 0.582824
O -1.016034 -1.597506 -0.375453
C 2.301344 0.264224 -1.115320
C 1.002677 -0.462477 -1.445712
C 0.143077 -0.699987 -0.257568
C 0.348507 -0.527475 1.216897
C -0.827969 1.781086 0.662227
C -1.863910 -0.712715 0.255954
O -2.594251 -1.252258 1.364260
H 0.220161 -1.382137 1.890140
H 2.143372 1.215818 -0.604976
H 0.433415 0.058728 -2.222182
H 1.289262 0.083068 1.463655
H 1.227780 -1.440465 -1.847658
H -1.422842 2.190417 -0.197326
H 2.935450 -0.345195 -0.441849
H 0.097302 2.274068 0.743104
H -2.573380 -0.197027 -0.439786
H 2.888624 0.483187 -1.993289
H -2.658109 -2.080957 1.118775
H -1.352290 2.064021 1.643292