13
H5 C3 N5
C -0.298874 0.770029 -0.460216
N 0.228813 -1.136463 2.445744
C 0.247551 -0.643650 1.228033
C 0.863138 -1.592979 0.201856
N -0.750636 1.929052 -0.934857
N 0.874481 -1.299622 -1.014907
N 0.213630 -0.102693 -1.381716
N -0.357498 0.500623 0.802581
H 1.308676 -2.532961 0.439722
H -1.295374 2.453194 -0.216412
H -0.157402 -0.402743 3.057841
H 0.376160 0.139583 -2.368879
H -1.252677 1.918643 -1.798760