20
H11 C7 N1 O1
C -0.345255 -0.551671 -0.229256
C -2.505554 0.692187 -0.172769
C 1.691685 0.475414 0.032061
C 3.082338 0.253756 -0.273045
C 0.967713 -0.703447 0.761611
N -1.177750 0.523441 0.341936
O 3.610427 -0.748718 -0.837967
C -2.303903 0.062435 1.164745
C 0.577018 0.029395 -1.246790
H -2.835648 1.824165 -0.196483
H 1.439210 -1.670077 0.691692
H 1.488063 1.441278 0.399673
H -2.528797 -1.015087 1.296816
H -0.723161 -1.513234 -0.492573
H -2.937651 0.040462 -0.976439
H -0.596225 0.057637 -2.089818
H 0.647165 -0.530364 1.838949
H 3.765506 1.122600 -0.089148
H -2.472380 0.611345 2.039784
H 1.157182 -0.401502 -1.962922