20
H11 C6 N1 O2
C -0.441530 -1.052758 1.131941
C 0.029960 2.065281 -0.355956
O -1.056566 1.233196 1.679511
C 1.003978 -2.330706 -0.641852
C -0.817740 -0.487846 -0.202413
C -0.339902 0.892400 0.470941
N 0.719528 -0.852412 -0.552346
C 0.731940 -0.214565 0.840733
O -1.145969 2.795145 -0.595554
H 0.519395 1.778474 -1.290691
H 0.688121 2.749350 0.177091
H 1.326793 -2.481008 -1.677507
H 1.756359 -2.662791 0.014729
H -1.682930 1.931073 1.409087
H 1.099106 -0.316894 -1.299071
H 0.068820 -2.927757 -0.508440
H -1.699754 2.258513 -1.102066
H -1.568330 -0.676196 -0.857757
H 1.683482 -0.119358 1.478459
H -0.874786 -1.581141 1.881178