12
H3 C4 N5
C 0.980538 -0.041148 -0.224793
N 0.862960 -1.269965 0.295921
N -3.223122 2.145072 0.110395
N 2.128084 0.423434 -0.751457
N -1.451035 -0.765892 0.701866
C -2.237782 1.368253 0.180735
C -0.352314 -1.534972 0.786148
C -1.192390 0.453973 0.251171
N -0.070966 0.867315 -0.306079
H -0.484105 -2.555848 1.190996
H 2.191230 1.194870 -1.305531
H 2.848933 -0.285084 -0.929385