19
H10 C6 O3
C 0.601457 1.064000 -0.754331
C -0.472343 -1.671730 -1.046855
C 0.065014 -1.172787 0.282332
O 1.013310 0.669588 -1.880904
C -1.412723 -1.210767 0.045284
O 0.637929 -2.156897 1.126103
C 0.158450 2.465764 -0.628478
C 0.722327 0.207206 0.473181
O 0.106700 0.698869 1.671506
H 0.787862 2.977331 0.220042
H -0.336624 -2.758974 -1.148313
H 0.451566 -1.791791 1.960091
H -2.004148 -0.366540 -0.161852
H 0.268252 2.949578 -1.520360
H 0.803975 0.602281 2.404014
H -1.921327 -1.964370 0.573854
H -0.870912 2.500803 -0.188877
H -0.385191 -1.093862 -1.978156
H 1.786417 0.052276 0.551708