23
H14 C7 O2
C -0.212360 0.109902 -0.507897
C 0.564416 -0.842509 0.327987
C -2.723796 3.104908 0.037551
C 1.695961 -1.552129 -0.367808
C 2.364831 -2.625991 0.508966
O 3.450305 -3.228820 -0.213375
C -2.123683 1.899681 -0.663212
C -1.029153 1.223228 0.201621
O -0.214538 -0.057439 -1.709018
H -1.854483 3.860250 0.255487
H 3.819445 -3.883104 0.342391
H -3.084513 2.801514 0.962499
H -1.595132 2.113515 -1.602187
H 2.795319 -2.200443 1.446018
H -0.155413 -1.575372 0.702849
H -0.256391 1.895188 0.584427
H 1.632237 -3.361782 0.784819
H 0.899494 -0.298080 1.240461
H -3.435251 3.557184 -0.597520
H -2.852336 1.137623 -0.876752
H 2.498847 -0.810979 -0.694183
H 1.307086 -1.993137 -1.224517
H -1.490871 0.726817 1.061401