25
H16 C8 O1
C -2.032640 1.714321 1.118570
C -1.751226 0.383054 0.369986
C -0.786285 -1.300448 -2.034033
C 2.088395 -0.316919 0.984576
O 1.422674 -1.080168 -1.291875
C 0.111114 -1.003499 -0.859814
C 2.417858 -0.413616 -0.498947
C 0.728981 0.392016 1.108463
C -0.255151 0.293146 -0.120265
H 3.405406 -0.993700 -0.657694
H 0.256900 0.058263 2.033910
H -1.610218 1.750635 2.131150
H 2.552829 0.568495 -0.967634
H -1.832620 2.570897 0.572951
H -1.968425 -0.438982 0.951909
H -3.177273 1.693935 1.322547
H -1.831089 -1.572432 -1.704999
H 0.000960 -1.820109 -0.130355
H 0.929913 1.518205 1.356244
H -0.372541 -2.105655 -2.571259
H -2.343213 0.362528 -0.534815
H -0.883125 -0.406903 -2.658473
H 2.868111 0.289626 1.468842
H -0.064439 1.148761 -0.739892
H 2.125071 -1.291470 1.350868