21
H12 C8 O1
O -0.126781 1.511745 1.874569
C 0.814629 0.856143 -0.085009
C 0.406403 -1.640100 -0.120303
C -1.645880 0.512952 0.731818
C 0.820002 0.416653 -1.529031
C 0.104709 -0.981608 -1.568111
C -0.504085 0.081597 1.731428
C 0.704308 -0.373884 0.818136
C -0.519958 1.610243 0.487608
H -1.001716 -0.885876 -1.678860
H -0.398758 -2.270232 0.213802
H 1.605935 -0.614727 1.380717
H 0.497603 -1.682532 -2.352629
H 1.786314 0.317827 -1.855319
H 0.268391 1.084332 -2.198979
H -1.923607 -0.169798 -0.049558
H -2.443114 0.864267 1.308346
H -0.598209 -0.489197 2.667485
H -0.804462 2.592338 0.124106
H 1.661315 1.503493 0.172013
H 1.296955 -2.243637 -0.072223