17
H8 C6 N2 O1
C 1.616247 0.734381 0.671165
C -0.304186 1.074085 0.029924
C 0.103436 -1.309159 0.322188
C 0.569192 -0.056633 -0.279368
N 0.323488 1.121570 1.404605
N -0.160003 -0.510047 -1.680064
C -1.180593 -1.015862 -0.638887
C -1.680836 0.336766 -0.286406
O -2.771432 0.845628 -0.376438
H -1.939373 -1.804201 -0.914026
H 2.399122 0.107861 1.351831
H -0.090385 1.905183 -0.615954
H 0.087874 -1.390770 -2.196976
H 0.725295 -2.196909 -0.140351
H 2.166214 1.619430 0.301966
H -0.076179 -1.491529 1.276366
H 0.212141 2.030176 1.770419