18
H9 C7 N1 O1
C -0.092267 -0.605087 0.313979
C 1.393056 -0.940492 0.227213
C 0.607566 1.242139 -0.270487
C -1.513832 -1.008310 0.505388
C -0.258509 0.857333 0.922161
O -0.728178 0.065396 -2.203885
C -1.569275 0.496071 0.187170
C -0.483041 0.376349 -0.891028
N 1.921061 0.359974 -0.278344
H -0.077686 1.098542 2.004593
H -1.732434 -1.299645 1.601584
H 0.027551 -0.266421 -2.623922
H -2.491432 1.131153 0.128089
H 1.851440 -1.139956 1.254982
H 0.823800 2.248676 -0.642872
H -1.940339 -1.746790 -0.145788
H 2.623310 0.801035 0.318113
H 1.639206 -1.669919 -0.406940