12
H3 C5 N1 O3
O 0.581324 -2.545874 -0.585098
C 0.703244 0.788858 0.816004
C 1.216938 -0.386615 0.293572
C -0.520497 1.419675 0.653828
C -0.947938 -0.842438 -1.087712
O -1.518906 1.239852 -0.061853
C 0.342250 -1.360596 -0.446834
N -1.647564 0.163665 -0.965167
O 2.401967 -0.744420 0.475172
H -1.315544 -1.468544 -1.790228
H 1.408640 1.432751 1.479469
H -0.703950 2.303667 1.218851