13
H4 C5 N2 O2
O -2.206162 1.433071 -1.053077
C 0.183539 -0.516752 0.678888
N -1.980192 0.168942 0.944970
C 2.334186 -1.857558 1.323877
C -1.478936 0.607348 -0.190764
C -0.091547 0.299924 -0.411336
N 0.682697 0.572143 -1.532216
C 1.290500 -1.297807 1.031039
O -0.915666 -0.583677 1.496063
H 0.435380 1.472677 -2.043314
H 1.639028 0.477612 -1.348464
H -3.120647 1.519400 -0.540779
H 3.227818 -2.295334 1.645131