18
H9 C5 N1 O3
O -0.434372 0.048063 0.940276
N 0.017921 1.253748 2.781245
C -0.056970 -0.335640 -0.388801
C 0.142451 1.087315 1.540972
C -0.791481 -1.612296 -0.733930
O 0.926967 1.726404 0.675505
C -0.390463 -2.153773 -2.083369
O 1.932246 3.661822 0.568928
C 1.175908 3.048232 1.147648
H 0.681462 -2.555320 -2.003479
H -1.017711 -3.054428 -2.398242
H -0.198103 0.484608 -1.102575
H -1.863812 -1.332993 -0.783199
H -0.569777 0.660089 3.214833
H -0.447760 -1.412251 -2.932364
H -0.709468 -2.380277 0.051231
H 1.062477 -0.560738 -0.443977
H 0.540444 3.427444 1.949309