22
H13 C8 N1
C -0.299606 0.496190 1.043642
C 1.939866 0.547890 -0.232685
C 0.713386 1.303349 0.162028
C -0.932961 -0.739124 0.465879
C -1.302979 1.470206 1.578792
C 1.952240 -0.639268 -0.995803
C -0.416124 -1.495363 -0.684338
N -1.597232 -0.531851 -0.880709
C 0.787968 -1.306015 -1.636656
H 2.884772 0.894458 0.055381
H 0.193423 1.675930 -0.687260
H -2.068346 0.974450 2.261068
H 1.020601 2.096667 0.777234
H -1.955981 1.825695 0.722832
H 0.325326 0.087350 1.890342
H -2.442602 -1.081766 -0.956338
H 1.056537 -2.270564 -2.000019
H -1.508757 -1.300412 1.181333
H -0.708580 -2.554010 -0.599807
H 2.906231 -1.035718 -1.211095
H 0.306712 -0.711437 -2.395189
H -0.853907 2.293319 2.141359