14
H6 C6 O2
C 0.048591 2.154660 0.499289
C 1.242413 1.241240 0.136490
C 0.277231 0.297136 -0.437043
O 2.376658 1.416236 0.315013
C -1.633300 -2.772042 -0.740062
O -0.822140 1.154094 -0.059985
C 0.237703 -1.093637 0.265689
C -0.778498 -2.061718 -0.235661
H -0.079564 3.076287 -0.093572
H 0.352875 0.118512 -1.517290
H -0.185075 2.313217 1.578102
H 1.264733 -1.522632 0.139911
H -2.323977 -3.358289 -1.191206
H 0.022328 -0.963045 1.340330