18
H9 C5 N1 O3
C 0.863338 -0.314790 -0.962335
N 0.157698 -0.424303 -2.343915
H -1.585120 1.592728 -0.010593
H 1.256665 -1.296184 -0.801916
C -0.112750 0.318238 2.587498
C 0.545928 0.548346 1.365905
C -0.186413 0.213154 0.022907
O -1.932655 -1.730917 0.031397
C -1.172829 -0.940621 0.044134
O -0.822530 1.299156 -0.530135
O 0.934299 -0.560937 2.180720
H -0.375734 -1.235566 -2.499367
H 1.669787 0.386716 -1.164248
H -1.049712 -0.111363 2.738889
H -0.370449 0.490283 -2.337093
H 0.164852 1.043263 3.394613
H 0.796980 -0.564609 -3.008159
H 1.218621 1.287404 1.291670