16
H8 C6 O2
O 0.303637 0.347675 -1.346263
C -0.157149 1.030875 1.001705
C -0.579090 -1.982666 0.767597
C -1.224445 -0.704021 0.403042
C -0.064936 -3.104191 1.133534
C 1.200938 1.407400 -1.496045
C -0.373042 0.142861 -0.263309
O -0.997335 0.184577 1.708225
H -2.207752 -0.594200 0.165911
H 0.702384 2.442762 -1.432927
H 0.870281 0.960083 1.382056
H 0.379380 -3.997549 1.430123
H 2.061651 1.386563 -0.705902
H -0.423572 2.045591 0.909808
H 1.599208 1.381251 -2.426939
H -1.090171 -0.947010 -1.230623