18
H9 C6 N1 O2
O 0.437575 -0.658539 1.608116
C 0.098991 -1.103724 2.921335
C -0.631714 -0.268105 0.866845
C -0.541094 1.385959 -1.158286
C 0.767058 1.256052 -1.932120
O -1.786628 -0.151023 1.326067
C 0.159621 -0.921064 -1.521145
C -0.308965 0.022254 -0.545139
N 1.201391 0.063069 -1.120444
H 0.402835 -1.927597 -1.052802
H 1.554951 2.015072 -1.643969
H -0.493632 2.224994 -0.418394
H 0.763366 1.108520 -2.897603
H -0.374129 -0.272067 3.465228
H 1.042714 -1.370270 3.354247
H -1.466726 1.554453 -1.667796
H -0.584476 -1.959437 2.930052
H -0.241120 -0.998545 -2.514205