20
H11 C7 N1 O1
C 0.032786 -0.541362 -0.308038
C -1.238465 -1.080872 1.779470
C 2.385164 -0.436294 -1.547376
O -3.381251 0.302686 0.251422
C -1.780853 0.381527 2.090386
C -2.062980 0.510569 0.536433
N -1.250890 -0.681109 0.335900
C 2.819401 0.993016 -2.012691
C 1.141183 -0.507890 -0.850333
H -2.597635 0.447854 2.641856
H -1.656049 1.424474 0.089598
H 3.005449 1.576566 -1.117082
H -3.535338 -0.590706 -0.033447
H 2.078657 1.412345 -2.568508
H -0.958386 1.025630 2.417088
H 3.801058 0.919334 -2.546550
H 3.188592 -0.841457 -0.895960
H -0.373506 -1.364538 2.223058
H 2.394874 -1.059882 -2.440520
H -2.011804 -1.889900 1.955276