16
H8 C5 N2 O1
O 0.124293 -0.204669 1.526449
C 1.537561 1.600893 -0.507586
C -0.155129 0.141436 -1.932681
C 0.462104 0.529122 -0.755331
N -1.108883 -1.031049 -0.325840
C -0.208184 -0.232377 0.217967
C -0.700470 -1.045861 2.297732
N -1.059050 -0.745184 -1.710162
H -0.546315 -2.091667 2.047431
H 1.833156 2.060333 -1.420610
H 0.051193 0.501501 -2.958324
H -0.375179 -0.924749 3.358116
H -1.660535 -1.284473 -2.221138
H 1.173313 2.312449 0.166106
H 2.412794 1.191205 -0.008337
H -1.780662 -0.776918 2.226199