21
H12 C8 O1
O 0.249694 -0.410437 4.119990
C 0.132477 0.790552 -2.508733
C 1.252201 0.030140 3.088771
C -0.910739 0.173627 -1.508568
C -0.329792 -1.327564 3.287124
C 0.151072 -0.657706 0.844329
C 0.722994 -1.034804 2.129612
C -0.347236 -0.297251 -0.210539
C -0.421891 1.255737 -3.787991
H 0.612009 1.614371 -1.924366
H -1.765434 0.829041 -1.336767
H 1.363075 -1.880969 1.983112
H 2.307316 -0.134192 3.322605
H 1.053524 1.083784 2.774235
H -1.329144 -0.721200 -2.037104
H -1.277318 1.974707 -3.614751
H 0.950650 0.065520 -2.613823
H -0.986534 0.377750 -4.287682
H -0.374522 -2.314901 3.647125
H -1.372900 -1.105300 3.032333
H 0.320500 1.689129 -4.398967