13
H4 C3 N4 O2
N 0.385734 -0.428790 -1.421247
C -0.061648 -1.533263 -0.756610
N -0.040403 0.902921 0.543967
C 0.363415 0.643869 -0.702454
O -0.874892 -0.157014 2.425212
C -0.445264 -0.179776 1.198262
N 0.786363 1.792461 -1.343840
N -0.575190 -1.353537 0.511130
O -0.100356 -2.626685 -1.231750
H -0.843576 0.788139 2.753279
H -0.864913 -2.106368 1.029158
H 1.266610 1.659286 -2.201854
H 1.004135 2.598762 -0.803288