18
H9 C7 N1 O1
C -1.195942 1.441065 0.495937
C 1.798852 0.945685 -1.259556
C -0.555879 -1.632642 -0.205244
C -1.056313 -0.162978 -0.445398
O 1.125597 1.594793 -0.061505
C -0.091349 -1.513126 1.166764
C 0.054681 0.800256 0.270192
C -0.189616 -0.079156 1.524029
N -1.727970 0.208517 0.959610
H -1.705089 2.359715 0.472159
H 2.177009 -0.109327 -0.974158
H -1.608394 0.040668 -1.385771
H 2.633783 1.585612 -1.380367
H 0.302267 -1.891905 -0.906067
H 1.141190 0.849559 -2.153043
H 0.226582 -2.297756 1.799351
H -1.375230 -2.350818 -0.409672
H 0.045868 0.211842 2.492757