25
H16 C9
C 0.218509 -0.056416 -0.265430
C 1.600970 0.385405 -0.661579
C 2.301471 1.329190 0.346465
C -2.153071 0.866042 0.019192
C -1.669055 0.457415 -1.386975
C -0.612294 -0.714751 -1.409861
C -0.653310 -2.008343 1.401354
C 0.361313 -0.862302 1.070150
C -0.709071 1.139344 -0.390413
H -2.405839 0.075906 0.798901
H 3.300825 1.738173 -0.013725
H 1.722791 2.318487 0.394008
H -0.392681 -2.342408 2.338917
H -0.437193 2.205253 -0.417827
H -1.086608 -1.675962 -1.151065
H -0.574069 -2.826648 0.672574
H 2.398262 0.958956 1.361820
H -2.124972 0.793111 -2.275912
H 1.545589 0.902778 -1.650039
H -1.730823 -1.639134 1.416195
H -2.789377 1.725855 -0.032003
H -0.067845 -0.811233 -2.317424
H 0.316803 -0.169362 1.906020
H 2.253094 -0.491990 -0.820783
H 1.386551 -1.297381 1.067475