15
H6 C5 O4
O -1.113135 -0.370044 1.761832
C -0.714000 0.964695 1.282040
C -0.412491 -1.105278 0.756439
C 1.609082 0.426828 0.205232
O 2.254881 0.149029 1.173736
C -0.352609 -0.230588 -2.219861
O -0.737236 0.163292 -3.347967
C 0.109897 0.243813 0.096722
O -0.416945 0.632170 -1.201677
H -1.482244 1.590578 0.984550
H 0.374590 -1.747456 1.126161
H -0.041172 1.456123 2.025898
H 2.112324 0.750029 -0.802070
H -0.171549 -1.212687 -1.937829
H -1.019448 -1.710497 0.096806