14
H6 C6 O2
C 0.000710 2.065865 -0.156200
C -0.759077 -1.505343 0.232504
O -0.641215 4.252151 -0.225055
C -0.089985 0.803839 -0.468576
C 0.047948 3.412046 0.123660
O 1.136585 -1.208579 -0.717804
C 0.664792 -2.057996 0.452522
C -0.118797 -0.538698 -0.819614
H -1.427756 -2.269629 -0.128993
H -1.151274 -1.064689 1.078926
H -0.570453 -0.656749 -1.814771
H 1.141178 -1.752887 1.345848
H 0.881030 3.609255 0.846660
H 0.886336 -3.088553 0.250891