21
H12 C6 O3
C -0.518675 0.901888 1.669579
C 0.291317 -0.096767 -0.624114
C 1.073374 -1.233221 0.018891
C 1.086709 1.130425 -0.986041
O -1.903768 -0.604748 0.540057
O -0.135530 -0.215214 2.494970
C -0.983374 0.355859 0.309537
C -0.259588 -0.654113 -1.916948
O -1.262727 -1.409536 -2.007034
H -0.935977 -0.719055 2.540950
H -1.388878 1.429105 2.136137
H -1.458450 1.227446 -0.193986
H 0.400836 -1.988206 0.451552
H 1.623866 1.569585 -0.060232
H 0.171995 -0.365212 -2.844462
H 0.525760 1.918738 -1.494976
H 0.320101 1.663874 1.619893
H 1.932968 0.795831 -1.652093
H 1.712526 -1.669687 -0.657795
H -1.947050 -1.227452 -0.198497
H 1.654591 -0.809568 0.854604