21
H12 C7 O2
O -1.285801 -2.106180 2.092538
C 1.619545 -0.016402 -0.310432
C 0.565072 -0.800111 0.469843
C -0.276679 1.350868 -1.299236
C -1.047858 1.035010 -0.008895
C -1.799944 -1.000171 1.331675
C 0.987710 0.510841 -1.611357
O 2.731122 -0.811303 -0.657896
C -0.670128 -0.280487 0.609216
H 0.729564 -0.366701 -2.169747
H 0.049269 2.419056 -1.173596
H -2.407572 -0.269561 1.913480
H -0.638239 -1.642811 2.723211
H -2.499025 -1.461104 0.552851
H 0.828317 -1.658041 0.950232
H 1.959103 0.835643 0.281315
H -0.882293 1.315666 -2.162500
H -0.796633 1.836145 0.755975
H 1.751713 1.069194 -2.169866
H -2.115343 1.111130 -0.197225
H 3.198084 -1.070659 0.080404