19
H10 C6 O3
C 1.520798 -0.523717 1.110488
C -0.178232 -1.056419 -0.377775
O -1.949183 -0.843475 -2.143009
C -1.308727 0.423790 -2.344963
C -1.280948 -0.298752 -1.095307
C 2.174783 0.621407 1.953755
O -2.041454 1.521237 -1.705861
C -2.173106 0.719165 -0.459362
O 0.502231 -0.071946 0.402603
H 2.980675 0.218918 2.493027
H 1.429804 1.036027 2.718146
H 1.290618 -1.348970 1.752529
H 2.438717 1.491784 1.283940
H -1.763167 1.235569 0.397298
H -0.788207 0.608151 -3.190595
H 0.558631 -1.434726 -1.074167
H -0.561999 -1.872393 0.229673
H 2.413306 -0.874706 0.395650
H -3.264512 0.449045 -0.346067