18
H9 C6 N1 O2
O -1.876015 -0.981851 0.150986
C 1.290490 0.161318 -0.801250
C 0.093048 0.162118 0.037472
C -0.102123 -0.190998 1.479284
O -0.341546 1.513317 -0.480947
C -1.365815 -0.979953 1.499774
N 2.496480 -0.435838 -0.609297
C -0.813471 -0.763001 -0.608808
C 0.691458 1.184178 -1.718387
H -0.748776 -1.247898 -1.551233
H -2.151461 -0.580805 2.182898
H 0.746468 -0.820697 1.747081
H -1.457837 1.392176 0.208995
H 0.200998 0.862378 -2.598071
H 1.356067 1.988135 -1.858709
H -0.032364 0.688610 2.170748
H 3.208303 0.036605 -1.165677
H -1.193914 -1.987805 1.915145