17
H8 C5 N2 O2
C -1.446379 0.244276 -1.437667
N -0.777743 0.983204 -0.449991
C -0.428826 -0.203253 -2.475574
N 1.004687 -1.408469 1.676052
C 0.216072 -1.017832 0.641319
C 0.797124 1.411366 1.363185
O -0.243450 -1.238350 -2.855639
C 0.012925 0.537592 0.445609
O -0.368208 -1.890526 0.049622
H -1.974395 -0.632264 -1.062589
H 0.450463 1.242021 2.392463
H 1.210185 -0.756044 2.425589
H 0.564601 2.449816 1.038072
H 1.849128 1.174214 1.318998
H 1.071072 -2.359235 1.817796
H -2.112101 0.897352 -1.981743
H 0.174817 0.566131 -2.905496