20
H11 C6 N1 O2
C 1.909762 -1.427779 0.312954
C -0.281536 -0.068243 0.912135
C -1.135554 -0.210139 -0.355032
C 1.222952 -0.127014 0.585014
O -2.131572 0.871460 -2.229708
C 1.714061 -0.455083 -0.795586
C -1.428461 1.170608 -1.076165
N -0.608826 1.061195 1.711982
O -1.556036 -1.191593 -0.801998
H -1.669600 1.074971 1.883791
H -0.551745 -0.948439 1.489055
H -0.149074 0.955857 2.664572
H 2.856593 -1.601550 0.761728
H 2.619626 0.074853 -1.105835
H 1.023162 -0.724595 -1.570330
H -2.419301 -0.088285 -2.293108
H 1.799038 0.567224 1.179655
H 1.250713 -2.316544 0.359309
H -1.979783 1.717389 -0.370020
H -0.484421 1.665728 -1.262443