19
H11 C6 N1 O1
C 1.400702 -1.429785 0.214203
C 0.995113 0.940924 -0.074007
C 0.386255 1.815501 1.025142
C -0.614664 -0.908864 -0.889145
C -1.680312 -1.497894 0.099591
O 1.278196 -2.672695 0.199155
C 0.112530 2.122088 -0.376416
N 0.640421 -0.438113 -0.144782
H -2.026920 -0.755909 0.835411
H -0.384169 -1.727797 -1.604006
H 2.044139 1.085563 -0.268339
H 2.400532 -0.941140 0.596896
H -0.927895 1.965488 -0.753103
H 0.585413 2.906092 -0.903323
H -0.383901 1.419170 1.685176
H -1.075980 -0.112666 -1.414074
H -2.591504 -1.814380 -0.474918
H -1.239534 -2.395526 0.603139
H 1.081590 2.439960 1.643382