16
H8 C6 N2
N 1.356689 -1.109980 -0.238384
C -0.861849 -0.495361 0.471946
C -0.515601 -2.451540 0.003423
C 1.196101 1.601928 -0.968821
N -1.647341 -1.713769 0.441433
C 0.872147 0.690298 0.174543
C 0.283981 -1.152072 -0.016679
C -0.778956 0.961259 0.664249
H 0.610926 1.342263 -1.851938
H -0.914869 1.312966 1.729478
H -0.507517 -3.558254 -0.132372
H 1.427659 0.970181 1.065482
H -1.346640 1.545707 -0.030194
H 2.252439 1.360270 -1.318126
H 1.073261 2.647546 -0.745183
H -2.500439 -1.951426 0.751135