17
H9 C6 N1 O1
C 0.627882 -0.998050 -0.474745
C 0.602969 0.444422 0.100757
C -1.923246 0.418937 -0.001308
N -1.750236 -0.860902 -0.661949
O -0.639447 2.235281 0.904673
C -0.551941 1.096000 0.445598
C -0.744541 -1.699672 -0.147419
C 1.984581 1.160568 0.188291
H -2.427992 1.088765 -0.591548
H 1.792524 2.124391 0.578262
H -0.872950 -2.665416 -0.646055
H -2.565505 0.217009 0.907450
H 2.485531 1.246137 -0.803457
H 2.673506 0.619616 0.783133
H 1.423753 -1.587303 -0.050695
H -0.863570 -1.776900 0.974628
H 0.748727 -1.062871 -1.505618