23
H14 C9
C 1.592494 -0.806242 0.390811
C 0.543998 0.778471 -1.286673
C 0.271441 -1.964944 2.095681
C -0.556113 -0.143793 -1.700273
C -0.709251 0.793982 -0.490065
C -1.670205 1.907506 -0.624780
C 1.839814 0.216704 -0.754535
C -0.678413 0.011496 0.919793
C 0.495443 -0.904177 1.066168
H -1.726633 2.396726 -1.623672
H -1.649924 -0.480240 1.041665
H 0.673312 1.637225 -1.932399
H -2.743085 1.573433 -0.345838
H 2.459967 1.030231 -0.343754
H 0.015141 -1.530280 3.031659
H -1.359351 2.697511 0.090787
H -0.583430 -2.594212 1.851239
H -0.637557 0.787470 1.646918
H 2.416295 -0.266357 -1.589182
H 1.157124 -2.627832 2.233973
H -0.401362 -1.157698 -1.552935
H -1.131776 0.121662 -2.615200
H 2.382102 -1.476650 0.490640