15
H6 C5 N4
N 0.604290 -0.787888 1.110058
C 0.494404 0.296911 0.425918
C 1.393149 1.374982 0.919435
N -1.109937 -2.215808 0.007186
C -0.312432 0.665735 -0.809224
N -0.216872 1.901959 -1.130342
C -0.161900 -1.914852 0.815299
C -1.494232 -1.467999 -0.979831
N -1.124852 -0.235292 -1.424413
H -0.783830 2.041855 -1.929954
H 0.141932 -2.779175 1.452360
H 1.975049 1.005430 1.755415
H 0.824076 2.284775 1.226830
H 2.091681 1.709032 0.166058
H -2.320505 -1.879674 -1.604788