12
H4 C4 N2 O2
O -0.361759 0.119741 -1.446209
C 0.649165 0.160073 0.995442
C 0.752373 0.801460 -1.100739
N -2.117957 -1.175790 -0.773425
C -0.484094 -0.496381 0.825889
O 1.302052 0.250079 2.140125
C -1.084505 -0.586270 -0.513142
N 1.360282 0.873608 -0.014261
H 2.068345 0.770863 2.044501
H 1.166978 1.357239 -2.041085
H -0.923854 -1.004753 1.622250
H -2.327046 -1.069868 -1.739378