21
H12 C7 O2
C -0.343881 -0.706588 -0.390102
C 1.087967 1.101987 -1.285981
C -1.873682 0.737106 1.132818
O -0.289907 -1.840901 0.386835
C -0.543309 0.549366 0.493399
C -0.052245 1.717940 -0.451702
C 1.020275 -2.254957 0.823336
C 0.749225 -0.406214 -1.446809
O 1.279746 -1.169530 -2.123372
H 1.191371 1.507590 -2.295381
H 2.068531 1.229779 -0.760482
H -1.928462 1.656139 1.709572
H 1.449554 -1.472187 1.494611
H -2.118904 -0.106566 1.774343
H 1.015843 -3.140668 1.490854
H -1.249479 -0.795697 -1.040822
H 1.713324 -2.408516 0.005867
H 0.242214 0.495962 1.246277
H -2.711728 0.797248 0.326069
H 0.222318 2.628656 0.057522
H -0.928808 1.880056 -1.146810