16
H7 C6 N1 O2
O 1.254222 -0.918226 -0.068255
N 0.206968 1.394230 1.373316
C 1.243584 1.341152 0.707385
C -0.340594 0.415611 -0.855781
C -1.118145 -0.720876 0.784345
C -0.224437 -1.017496 -0.451056
C -0.912225 0.893735 0.589554
O -0.444719 -2.098543 -1.169523
C 1.184105 0.529989 -0.602023
H -2.195126 -1.005554 0.623359
H 1.901958 0.737118 -1.340531
H 0.576161 -2.380081 -1.335865
H -1.803879 1.452989 0.616171
H -0.774790 0.795601 -1.712343
H -0.830567 -1.072259 1.801690
H 2.277515 1.652604 1.039564