14
H5 C7 N1 O1
C 0.923523 -1.028967 1.391914
C 0.279829 -0.342147 0.261545
C -1.028793 -0.591850 -0.565977
C 0.313395 -0.903733 -1.072050
C -0.037591 1.768065 -0.790440
C 1.432991 -1.645613 2.287576
O 0.954971 -1.414626 -1.878288
C -1.213606 0.940788 -0.423062
N -0.040639 1.087628 0.524688
H -0.178550 2.858508 -0.698609
H 1.891146 -2.257142 3.120561
H 0.700716 1.453638 -1.529721
H -1.778961 -1.290520 -0.436121
H -2.218457 1.365998 -0.192015