17
H8 C7 N2
C -0.270063 0.853516 0.255142
C 1.089067 0.177957 0.413887
C -1.541772 0.508369 0.918909
C 2.249241 1.010303 0.884896
N 1.441182 -0.581869 -0.807433
C -0.371163 -1.285780 -1.164851
C 0.047456 0.203950 -1.278729
N 3.092706 1.680090 1.366610
C 0.661160 -1.360761 0.063962
H -1.384623 -1.478723 -1.023639
H 0.062689 0.854937 -2.031666
H -0.022902 -1.807136 -2.025615
H -1.536579 0.873809 1.973358
H -0.122992 1.920789 0.201152
H 0.778009 -2.100984 0.885395
H -2.343647 1.026143 0.468181
H -1.827757 -0.494599 0.900448