17
H8 C7 N2
C 0.681164 0.662013 -0.794249
C 0.136159 -0.046999 0.792898
C 1.054413 1.273170 -2.083607
C 0.937899 -0.789804 -0.331006
C 1.035003 1.131185 0.586333
C -1.095687 -0.764478 1.339376
N -0.765072 0.529287 -0.291227
C -1.713822 -0.619595 -0.071427
N 1.337329 1.786543 -3.075549
H 0.557826 -1.600903 -0.850775
H 0.691925 2.068914 0.968824
H -0.987819 -1.810139 1.710591
H -1.637291 -0.200947 2.054216
H 1.979792 -0.971551 -0.092928
H 2.110103 1.022072 0.921766
H -1.562636 -1.416195 -0.705576
H -2.759312 -0.252558 -0.077681