20
H11 C7 N1 O1
C 1.088616 -0.847975 0.758264
C -1.126626 -0.940888 -0.382797
N -3.428589 1.691625 -0.751153
C -0.151277 1.279213 0.471132
C 0.220848 -1.559302 -0.311816
C -1.027629 0.613279 -0.626581
C -2.354242 1.213421 -0.621348
C 1.223258 0.631508 0.558458
O 1.914125 0.918805 -0.635226
H -1.741716 -1.366307 -1.177721
H -0.034359 2.342207 0.265953
H -1.691197 -1.123842 0.564779
H 2.071385 -1.333289 0.820977
H -0.538067 0.796755 -1.585413
H 2.822088 0.556151 -0.585313
H 0.784706 -1.391469 -1.280643
H 1.760634 1.048177 1.462034
H 0.677782 -1.062152 1.727702
H -0.640424 1.169403 1.455868
H 0.170697 -2.635380 -0.127165