18
H9 C7 N1 O1
O 0.259613 -0.706943 -1.455908
C 1.098886 -0.847328 -0.252810
C -0.543354 1.628191 0.853462
C 1.765456 -2.105449 -0.303710
C -0.936766 0.170679 0.967695
C 0.102707 -0.931649 0.941153
C -1.158864 0.931263 -0.321002
N 2.467074 -3.155290 -0.424615
C -0.252079 0.573153 -1.523847
H -2.112373 1.234087 -0.615137
H 1.747132 -0.008865 -0.175482
H 0.502154 1.862605 0.793058
H -0.388334 -1.880251 0.870660
H -0.834843 0.543488 -2.458709
H 0.579316 1.293686 -1.609124
H -1.168915 2.356002 1.351705
H -1.812786 -0.088095 1.539228
H 0.685942 -0.869265 1.823371