17
H8 C7 O2
O 0.618841 1.152835 -1.469554
C 0.571837 -2.005207 0.391359
O 1.881402 2.534715 -0.127078
C -0.208848 0.160652 -1.263278
C -1.489551 0.728636 -0.547146
C 0.644709 0.744088 0.867243
C -0.885525 0.337295 0.770291
C 0.185280 -0.566355 0.162842
C 1.123358 1.594760 -0.224352
H 1.109841 0.687843 1.779894
H -1.326274 0.197116 1.754398
H -0.325163 -0.419033 -2.121691
H 0.745920 -2.140112 1.493637
H -1.686675 1.749558 -0.724479
H 1.555450 -2.171790 -0.068424
H -2.379733 0.101348 -0.731770
H -0.134883 -2.686351 0.058122