17
H9 C5 N1 O2
C -0.259653 1.886204 0.570898
C 0.660213 1.129815 1.421326
C 0.915422 1.188187 -0.077842
N -0.189447 -0.734544 -1.074170
C -0.455611 -2.211185 -1.059128
O -1.551981 1.479840 0.340238
C 0.696026 -0.322626 -0.067058
O 0.226296 -0.220725 1.259831
H 1.173284 1.437495 2.291723
H 1.778505 1.744929 -0.580935
H 1.571047 -0.892444 -0.109357
H -0.870095 -2.596769 -0.035941
H 0.386312 -2.796048 -1.232688
H -1.248811 -2.461051 -1.804413
H -0.980932 -0.137745 -1.244535
H -0.205946 2.935802 0.574409
H -1.644605 0.570873 0.827643