21
H12 C8 O1
C 0.026290 -0.685093 0.613890
C -0.858617 0.604550 0.632888
C 0.400144 1.396245 0.197751
O 0.823802 1.085321 -2.259104
C -0.081226 -1.808715 1.725605
C 1.255090 0.126185 0.524007
C -0.508600 -1.010920 -0.825644
C -0.110521 1.421027 -1.225033
C -1.120968 0.339603 -0.944246
H 1.222981 1.845550 -2.542612
H -1.627728 0.902818 1.308021
H 1.716646 0.247085 1.516092
H 0.721265 2.307415 0.641191
H 0.721117 -2.541548 1.460574
H 2.039180 -0.113215 -0.172069
H -2.057412 0.396499 -1.392991
H -1.041476 -2.317160 1.723726
H -0.600917 2.381544 -1.417802
H 0.129985 -1.418238 2.753811
H -1.279857 -1.780853 -0.786523
H 0.230821 -1.378076 -1.531512