23
H14 C7 O2
C 0.138633 0.463237 -0.472316
C 0.090063 -0.989129 -0.251905
C -0.604323 1.596363 0.158833
O 1.315123 0.842383 -1.113860
C -0.371792 -1.503142 1.152966
C 1.162884 -1.850678 -0.983096
C 0.263913 2.483311 1.142216
C -0.817944 -0.406408 -1.236898
O -2.256982 -0.454786 -1.057218
H 1.133659 2.923217 0.562285
H 1.523725 -1.469796 -1.857654
H 0.551311 -1.546153 1.779342
H 0.773065 -2.931970 -1.108818
H 1.996870 -1.980416 -0.278329
H -0.333442 3.240705 1.547761
H -1.379004 1.255704 0.795646
H -0.638097 -0.571264 -2.312039
H -2.450710 -0.670574 -0.110656
H -0.982437 2.267514 -0.565821
H -1.100778 -0.920428 1.561958
H 0.699121 1.914374 1.935519
H 2.039584 0.831878 -0.338282
H -0.752419 -2.523913 1.050363