17
H8 C6 N2 O1
C -1.676762 -0.127400 0.300989
C 1.165712 -1.719388 0.064884
C 0.960944 0.604301 -0.498605
N 0.487389 -0.730952 -0.652014
C -0.954157 -0.904010 -0.809716
O 2.161402 -1.646736 0.749394
N 1.408479 1.090688 0.791151
C 0.102939 1.518684 0.346154
C -1.192471 0.924957 0.891111
H 1.449095 1.004894 -1.391697
H -1.295842 -0.427680 -1.869259
H 0.707266 -2.717164 -0.099348
H -1.677680 1.380149 1.698815
H -2.644174 -0.552580 0.589113
H 2.147202 1.710423 0.757814
H -1.207602 -1.963685 -0.908677
H 0.058222 2.555492 0.039866