20
H11 C7 N1 O1
C 0.641472 -0.987149 0.273521
C -0.252246 -0.282428 1.270705
C 0.069182 -1.864317 -0.935709
C -0.062367 -0.541876 -1.763203
N -1.482224 0.206979 0.523598
C -0.304367 2.425341 0.609337
C 0.675379 0.290860 -0.672591
C -0.266039 0.926475 0.402429
O 1.789585 -1.527022 0.858325
H -0.848615 2.642220 1.589337
H 0.556851 -0.580095 -2.696775
H 0.719906 2.867153 0.756751
H -0.889798 -2.340277 -0.711767
H 1.560288 -2.325074 1.300293
H -1.070714 -0.200696 -1.930059
H 0.733178 -2.597763 -1.283420
H -2.115048 0.566117 1.220656
H -0.272400 -0.365156 2.236424
H -0.791973 2.930106 -0.183724
H 1.609926 0.756634 -0.864114