17
H8 C7 N2
N -3.477356 -1.780937 -0.154793
C 0.225448 -1.203922 -0.773374
C 1.186448 1.789665 0.394416
C 0.756436 -1.142472 0.608265
C -2.445019 -1.332434 -0.230531
C -1.141212 -0.798102 -0.152310
N -0.337913 -0.250256 1.071584
C -0.365732 0.220972 -1.032334
C -0.117629 1.016311 0.273767
H 0.742469 -2.117837 1.137557
H 0.376731 -1.887335 -1.562201
H 1.306155 2.007312 1.446403
H 1.755336 -0.762586 0.688566
H 1.112980 2.772909 -0.142706
H -0.647833 0.478812 -2.069236
H -0.956741 1.708523 0.444636
H 2.027460 1.281333 0.052295