12
H5 C4 N1 O2
O 2.652238 0.459887 0.305518
C -1.260871 -0.600889 -0.946066
C 0.236529 1.109899 0.253144
O -0.830908 -1.427636 -1.715229
C -0.623888 -0.187314 0.308148
C 1.449717 0.249455 0.407105
N 0.676942 -0.913800 0.575959
H -1.336904 -0.216235 1.170297
H -2.210438 -0.088103 -1.124192
H 0.165127 1.777308 1.092774
H 0.172142 1.644794 -0.640095
H 0.910316 -1.807375 0.312655