17
H8 C5 O4
O 0.315069 2.031505 -1.366984
C 2.536310 1.346840 -0.843868
C -1.522059 -1.134240 0.986408
O -2.852297 -0.996733 1.463898
C 0.989743 1.233529 -0.785109
O 0.500379 -1.107745 -0.992952
C -0.949403 0.138967 0.342938
C 0.519835 -0.052622 -0.052163
O 3.126798 2.314072 -1.227361
H 1.129781 -0.224690 0.839226
H 1.425188 -1.174651 -1.321009
H -1.421385 -1.914800 0.238210
H -1.500530 0.558103 -0.488767
H -0.997565 0.974939 1.168530
H 3.136959 0.442248 -0.428909
H -3.485131 -0.969996 0.658237
H -0.951690 -1.464708 1.809689