18
H9 C6 N1 O2
C -0.234656 -1.385449 -0.712481
N -0.221809 1.602331 -0.656918
C 0.948009 -0.549830 -1.114570
C 0.816054 0.690680 -0.271052
C -1.239728 1.746090 0.263282
O -2.124034 2.604902 0.138763
C 0.060179 0.068204 1.231492
O -1.061420 0.891637 1.313441
C -0.287867 -1.252318 0.955874
H -0.117171 -2.482358 -0.992368
H -0.957750 -1.107526 2.030116
H 1.761183 1.198282 -0.015363
H 0.299208 -2.059540 1.418590
H -1.140368 -1.074437 -1.066500
H 1.932694 -1.019207 -0.884293
H -0.205083 2.149518 -1.475068
H 0.823650 0.316585 1.974212
H 0.948905 -0.337588 -2.137126