15
H6 C6 N2 O1
O -0.637776 -0.807951 -1.101733
C 0.316416 0.786779 0.499281
C -0.199724 -1.670390 0.906948
C 1.150767 1.614433 -0.533676
C -0.171843 -0.540655 0.192352
C -0.281061 1.980607 -0.223286
C -0.792428 -2.666500 -0.022688
N -0.985370 -2.162166 -1.204911
N 0.118947 -1.881275 2.086051
H -0.991540 1.886375 -1.009492
H -0.392719 2.905451 0.365250
H 1.338245 1.186421 -1.517640
H -1.009927 -3.703409 0.183787
H 1.966922 2.187200 -0.144806
H 0.571122 0.885066 1.524553