18
H9 C5 N3 O1
C -1.010105 -2.010817 -0.153372
N 1.398613 2.161158 -0.102669
C -0.369058 0.310735 0.216846
N -0.096866 -0.848279 -0.471381
C -0.933470 1.943728 1.109153
C 0.242045 1.535913 0.296646
O -1.310678 2.855581 1.738946
N -1.380703 0.612675 0.983536
C 1.293786 -1.176032 -0.830005
H 1.603233 2.205274 -1.024142
H -0.781343 -2.856827 -0.911223
H 1.848090 -0.309621 -1.142164
H -0.928270 -2.486310 0.828869
H -2.209916 0.156505 1.244086
H 1.279762 -1.866623 -1.701713
H -1.988149 -1.718813 -0.341893
H 1.439373 3.101403 0.311632
H 1.903619 -1.609650 -0.051141