17
H8 C6 O3
O 0.914568 -0.382907 -1.505255
C -0.181905 0.330009 0.202635
C 1.475302 1.274433 1.600384
C 0.489764 -1.071954 -0.362420
C 0.300896 0.921169 -1.123379
C -0.937640 -1.535739 -0.498492
O 0.262738 0.966378 1.396181
C -1.549729 -0.306454 0.230551
O 1.901031 1.794923 2.639204
H -2.293081 0.247698 -0.303415
H -1.143997 -2.464228 0.060325
H 1.229733 -1.615336 0.143918
H 2.233184 1.155150 0.680653
H -1.919556 -0.484848 1.238877
H -0.502208 1.206220 -1.826318
H 1.019791 1.721771 -1.071218
H -1.298867 -1.756293 -1.502239