15
H7 C5 N1 O2
O 0.817230 1.813295 -0.031361
C -1.533084 0.629846 1.104402
C -0.403327 -1.053155 1.185091
O -1.104776 -0.283669 2.163316
C -0.684392 -0.046962 0.013427
C 1.347778 0.012048 -1.499018
N 2.415118 0.493174 -1.935668
C 0.536091 0.754462 -0.486217
H 2.858175 -0.103772 -2.652278
H 0.653345 -1.131769 1.499208
H -1.246255 -0.466293 -0.811474
H -1.199530 1.702808 1.340232
H 0.987904 -0.898348 -1.822035
H -0.789751 -2.051730 1.015566
H -2.654536 0.630091 0.916825