16
H7 C5 N3 O1
C 0.254754 1.041645 -0.509482
C 0.063655 -0.053592 -1.798951
C 0.696978 -0.900687 -0.504771
N -0.371997 -0.090293 -2.793128
N -1.641166 -0.518840 0.392763
N 1.581352 0.284859 -0.792083
C 0.227293 0.086721 1.878643
C -0.244749 -0.097940 0.413046
O 1.296145 0.242961 -2.352478
H -2.112395 -0.032168 1.020059
H 0.166617 2.048776 -0.531586
H 1.128721 -1.807073 -0.455636
H -2.008794 -0.509923 -0.604519
H 0.088176 -0.888416 2.403597
H -0.374954 0.811163 2.353268
H 1.250385 0.382818 1.881273