11
H5 C4 N1 O1
C -0.508237 -0.546214 -0.591684
C 0.418767 -0.507551 0.619368
C 0.387826 0.564314 -1.171511
C -0.941669 -0.022027 0.835555
N 1.269439 0.421501 -0.024941
O 0.502836 1.154544 -2.190591
H 0.822311 -1.399490 1.129837
H -1.075541 1.092128 0.894779
H 1.807922 1.162242 0.316669
H -1.609244 -0.584958 1.302177
H -1.074401 -1.334490 -1.119636