17
H10 C5 O2
C -0.141689 -0.564625 -0.560838
C -2.349527 -1.606335 -1.106712
C 0.438759 0.468980 0.395997
O -3.560639 -1.420653 -1.028774
C -1.333485 -1.358332 -0.019207
C 2.169701 1.976001 0.741037
O 1.618377 1.077515 -0.099827
H -0.314975 1.237479 0.671604
H 2.538233 1.499320 1.598219
H 0.796615 -0.037820 1.347108
H 3.093457 2.368244 0.216431
H -1.926598 -2.073171 -1.994588
H -0.977844 -2.336145 0.360121
H 1.557191 2.815912 0.970407
H -1.877875 -0.819903 0.808994
H 0.686580 -1.214772 -0.856426
H -0.416330 -0.011680 -1.443508