19
H12 C7
C 0.561972 1.002946 -0.868129
C 1.982085 0.690202 1.335636
C 0.291324 -1.097822 0.327262
C 0.815267 0.308227 0.383799
C -1.981641 -0.903183 -1.160016
C -1.151484 -0.516433 0.046358
C -0.522357 0.917246 0.159006
H 2.112316 1.808051 1.420747
H -2.870578 -0.307188 -1.241722
H 1.077615 2.048428 -0.991369
H -1.732983 -0.654871 0.962903
H -2.277358 -1.947099 -1.120241
H 0.552665 0.466994 -1.808702
H 0.646791 -1.720693 -0.567462
H 1.690515 0.342948 2.367097
H 0.307539 -1.721930 1.180146
H -0.965410 1.799340 0.579442
H -1.442272 -0.743174 -2.117944
H 2.906014 0.228030 1.113156