17
H8 C8 O1
C 0.643774 0.155501 0.260488
C 0.396186 0.674262 1.774970
C 0.971706 0.680242 -1.116620
C 1.013395 -0.795714 -3.352777
C -0.441026 -0.814709 0.330110
O 2.002285 0.156301 -0.167202
C -1.684066 -0.065052 0.563486
C -0.887003 -0.106923 1.831839
C 0.985069 -0.133971 -2.328218
H -1.911950 0.839590 0.131063
H 1.062382 -1.387414 -4.194969
H 1.175132 0.308413 2.430180
H -0.331575 -1.850147 -0.020243
H 0.343729 1.791470 1.814409
H 0.613163 1.734245 -1.285864
H -2.590074 -0.719296 0.622426
H -1.361137 -0.466816 2.706882