16
H7 C6 N1 O2
C 1.547673 -0.812797 -0.531338
C 1.070131 -1.291274 0.899744
O -2.451891 1.056269 -1.183994
C -1.424010 0.821136 -0.671059
N 0.847855 0.443160 -0.269542
C -1.215838 0.155117 0.709417
C 0.244952 0.025038 0.998550
O 1.994511 -1.235492 -1.513962
C -0.020770 1.063655 -1.281218
H 1.820908 -1.445619 1.660843
H -1.726022 -0.856190 0.723776
H -1.777653 0.723516 1.409985
H 0.044627 0.667515 -2.259652
H 0.135113 2.173114 -1.288558
H 0.404192 -2.191712 0.830218
H 0.506233 0.704542 1.766782