11
H2 C4 N4 O1
O 1.859079 -1.693815 0.652249
C -0.158404 1.155391 0.807310
N -1.108335 1.395820 -0.107434
C 0.618555 -0.005905 0.652522
C -1.317617 0.474554 -1.061665
N 1.644980 -0.525350 1.308943
N 1.083672 -1.877076 -0.447966
C 0.251282 -0.879843 -0.434447
N -0.720501 -0.666524 -1.327141
H 0.043554 1.821090 1.619373
H -2.196268 0.801638 -1.661705