15
H6 C6 N1 O1 F1
C 0.716233 0.689775 1.272133
C -0.451487 1.434045 1.309547
C -0.028397 -0.562555 -0.653752
F 1.694070 0.952621 2.208874
C 0.955510 -0.210347 0.272259
O 2.161156 -0.880109 0.267158
C -1.408047 1.142231 0.333951
N 0.243952 -1.481348 -1.652979
C -1.249672 0.216613 -0.593586
H -2.013157 -0.015683 -1.324080
H -0.556048 -1.647799 -2.240108
H 0.618124 -2.290455 -1.322154
H -0.564380 2.188389 2.072193
H 2.245449 -1.273244 -0.357559
H -2.363308 1.737878 0.408111