12
H3 C5 N3 O1
O 1.452018 2.518604 0.214016
C 0.614851 -0.121182 0.802654
N -1.698506 -1.707034 -0.728244
C -0.028877 -1.417134 1.019547
C 0.706936 1.966268 -0.590016
C 0.219444 0.580268 -0.299719
N -0.957068 -2.007041 0.345724
C -0.682697 0.076297 -1.159787
N -1.574731 -0.577709 -1.546440
H 0.303719 2.391129 -1.534238
H 1.317174 0.259023 1.520608
H 0.327738 -1.961493 1.955887