17
H9 C5 N3
N 0.969383 0.385768 2.041282
C -0.814873 -0.295076 -1.169511
C -0.556989 -2.150470 0.159139
N -1.013108 -1.716556 -0.899480
C 0.440629 -0.151413 0.966694
C 0.235822 1.902847 -0.470169
C 0.355457 0.335815 -0.406055
N 0.137097 -1.469232 1.130052
H 0.339822 -1.945358 2.024085
H 1.250032 0.057302 -0.912984
H 0.227075 2.197569 -1.524943
H 1.068836 2.358688 -0.026316
H -1.713979 0.234181 -0.990818
H 1.187614 1.442850 1.835661
H -0.690561 2.229382 0.040238
H -0.636044 -0.217148 -2.250195
H -0.786207 -3.199132 0.453337