17
H8 C6 N2 O1
O 0.716473 -0.950606 1.445821
C -1.284339 1.843084 -0.757861
C -0.578805 0.934076 1.350103
C 1.412104 -2.100520 0.942516
C -1.327993 1.844444 0.615205
N 0.799796 -1.056577 -1.566776
C 0.083490 -0.086098 0.635520
C 0.100994 -0.189767 -0.771564
N -0.558654 0.847755 -1.413938
H -1.801000 2.560223 -1.505271
H -0.582886 0.874759 -2.453463
H 2.244568 -1.846630 0.354929
H 1.775976 -2.622257 1.831361
H -1.874608 2.681100 1.050267
H -0.539326 0.908168 2.361006
H 0.626298 -0.900030 -2.466271
H 0.787890 -2.741125 0.348413