14
H6 C3 N4 O1
C -0.816024 -0.376235 -0.447617
C 0.720574 1.030200 0.019406
N 0.935630 -0.061228 0.806005
N 1.599970 2.110098 0.086064
N -0.281395 0.825861 -0.767140
C -0.065008 -0.991084 0.444602
O -0.119035 -2.275480 0.932365
N -2.017500 -0.790849 -1.165117
H -0.579364 -2.266968 1.792444
H -2.107843 -0.366694 -2.058970
H 1.704402 2.479611 0.980301
H 1.771334 -0.368719 1.179145
H 1.349975 2.842736 -0.576794
H -2.095702 -1.791257 -1.224687