15
H7 C4 N3 O1
C -0.524811 -0.034633 -0.155680
C 0.638002 0.407235 0.327230
N 1.084119 1.469142 1.051917
C -1.858339 0.678733 -0.046092
C 0.999245 -1.784469 -0.582692
N 1.593589 -0.653467 0.045652
N -0.303207 -1.327444 -0.744691
O 1.446294 -2.767736 -1.013976
H -2.240494 0.644991 0.990617
H 2.482023 -0.753720 0.412141
H -1.742755 1.698375 -0.312370
H -2.589621 0.179851 -0.712347
H 1.685993 2.047650 0.567832
H 0.307416 2.087172 1.298366
H -0.977441 -1.891695 -1.125908