15
H8 C5 N2
C -0.912391 -0.998275 2.022163
C 0.711143 0.162669 -1.032536
N 0.038816 -0.409885 0.068654
C 0.324412 1.618127 -1.176286
C -0.335057 -1.786213 0.065011
N -0.949524 -2.113807 1.196194
C -0.303850 0.066939 1.370672
H -0.050445 0.981545 1.709665
H 1.801942 0.114299 -0.765862
H -0.272351 -2.395179 -0.773619
H -1.295970 -1.021193 3.021063
H 0.882330 2.070609 -2.055098
H -0.789613 1.724393 -1.451535
H 0.537642 2.303957 -0.249460
H 0.612877 -0.317992 -1.948974