23
H14 C9
C -0.352775 1.517343 -1.404318
C 1.428630 0.194024 0.304909
C 0.802207 -0.762039 1.312791
C -0.610462 1.244761 1.106813
C 0.569199 0.885330 -2.226632
C -0.582567 -1.414990 1.015272
C -0.558903 -0.140150 1.757618
C -0.733268 -1.959397 -0.439344
C 0.248683 1.043089 -0.162035
H -1.661916 1.504387 0.836645
H -0.017779 2.547663 -1.112523
H -0.177043 2.075413 1.765742
H 2.113706 0.834223 0.779437
H 1.455308 -1.276314 2.055041
H -0.909290 -2.209690 1.691630
H 1.914084 -0.307532 -0.494906
H 0.704588 -0.108137 -2.511874
H -0.929033 -0.148015 2.787180
H -0.702385 -3.057233 -0.437806
H -1.383752 1.274642 -1.506912
H 0.090254 -1.693606 -1.187115
H 0.961853 1.577856 -3.065235
H -1.669374 -1.621648 -0.864364