15
H6 C6 O3
O 1.596291 1.164776 -0.171070
C -1.752627 -1.303332 2.257812
C -0.010053 -0.516420 0.522735
C 1.100905 -0.083899 -0.496937
O 0.427067 1.574931 -1.956100
C 0.540335 0.100243 -1.920779
O 1.247820 3.281075 -0.792223
C -0.705511 -0.899727 1.262941
C 1.080301 2.091116 -0.949017
H 1.865148 -0.873329 -0.596752
H -0.536051 -0.252601 -2.096592
H -1.930459 -2.319839 2.216324
H -2.756737 -0.734964 2.139260
H 1.175938 -0.153407 -2.727282
H -1.342361 -1.074648 3.307669