18
H9 C6 N1 O2
C -0.606269 -0.088918 -0.024129
O -3.297360 1.428692 -1.406146
C 2.485759 -1.727517 0.636270
C 0.536860 -0.164412 0.770800
N 1.529042 -0.902371 0.040796
C 1.107489 1.233112 1.125611
C -1.599065 -0.022703 -0.604874
O 2.614699 -1.875522 1.870494
C -2.789887 0.057146 -1.439678
H -3.607076 -0.556754 -1.020538
H -2.578296 1.999121 -1.832434
H 3.196945 -2.178782 -0.043977
H -2.632935 -0.333578 -2.453047
H 1.368264 1.836094 0.233675
H 1.457449 -0.948091 -0.940942
H 0.411965 -0.671849 1.697064
H 2.058636 1.097586 1.665162
H 0.343779 1.818750 1.725915