15
H6 C4 N4 O1
N 2.526823 -0.475562 -1.296087
C -1.255980 0.233233 0.088269
C -0.959886 0.317383 -1.305694
O -2.457881 0.444305 0.604628
C 1.246844 -0.205044 -0.843134
N 0.308389 0.065478 -1.765507
C -0.179435 -0.081513 0.962887
N 1.011854 -0.412775 0.464878
N -0.439069 -0.305480 2.260781
H -3.123005 0.739709 -0.090132
H 3.227590 -0.466995 -0.505452
H 0.294640 -0.369273 2.919314
H -1.672433 0.573511 -1.948445
H -1.275611 0.102174 2.633661
H 2.747142 -0.159182 -2.179908