18
H9 C7 N1 O1
C -2.170265 1.138776 -0.406470
C -0.066385 -0.420682 -0.190416
C 0.519617 -0.001330 1.309980
C -1.411552 0.134733 0.454096
C -0.078988 -1.776088 -0.802605
C 1.508310 0.993289 0.682531
N -2.730943 1.943604 -1.014112
C 0.902860 0.722957 -0.698293
O -0.785093 0.674355 1.588621
H -2.084498 -0.648765 0.719086
H 0.763273 -0.819087 2.028091
H 2.553977 0.590338 0.722364
H -0.608390 -2.510378 -0.165304
H 0.887338 -2.137050 -1.089740
H -0.593931 -1.736731 -1.730128
H 1.594995 0.316922 -1.468930
H 1.436259 1.946905 1.205062
H 0.363395 1.588250 -1.143846