20
H11 C6 N1 O2
C 0.757098 1.231940 0.512262
C 0.592353 0.244474 -1.922143
O -1.431406 0.742067 2.518354
C -1.654834 0.585349 1.105959
C 0.258798 -1.220099 0.689418
N -0.141981 0.800335 -0.817387
C -0.351851 0.253140 0.483465
C 1.103984 -1.203957 -1.548072
O 1.405929 -1.379511 -0.149872
H 0.549353 2.191050 0.920506
H -2.316441 0.987794 2.892919
H -1.995274 1.561198 0.619958
H 0.331957 -1.957617 -1.821458
H -2.351372 -0.150105 0.860955
H 2.036257 -1.389598 -2.098438
H 1.777324 0.901805 0.430689
H -0.013989 0.155826 -2.828997
H 0.555150 -1.333306 1.690370
H 1.436568 0.921434 -2.032022
H -0.547631 -1.942223 0.493526