19
H10 C7 O2
C 0.317068 0.766720 0.481075
O -0.435635 0.296255 1.615600
C -0.482730 2.311159 -1.603887
C -0.708566 1.215340 -0.557751
C 0.484768 -0.747510 0.076075
C -0.956116 -0.639054 0.696008
C -1.668883 0.319107 -0.331115
O 1.284215 -2.953388 0.718688
C 1.557631 -1.560704 0.870914
H 1.229076 1.416515 0.693034
H -1.439134 2.456563 -2.108519
H 2.534236 -1.357161 0.525815
H 0.256685 1.946985 -2.268392
H -0.176824 3.225483 -1.082671
H 0.469599 -3.255059 1.077219
H -1.526248 -1.497054 1.078053
H -2.638820 0.186475 -0.849100
H 0.489686 -0.947412 -0.994506
H 1.409995 -1.183301 1.963420