14
H6 C4 N2 O2
N 1.041975 -0.715548 0.786654
C 0.004439 -0.042281 0.368630
N 1.349695 -0.588773 -1.347667
C 0.092757 0.075649 -0.981455
C -1.962312 1.161155 0.763443
O -0.867305 0.475026 1.241921
C 1.908884 -1.223032 -0.233929
O 2.893888 -1.897367 -0.194794
H 1.195864 -1.087964 1.794384
H 1.677945 -0.647992 -2.223717
H -2.587494 0.464340 0.017154
H -2.614989 1.432676 1.581326
H -0.502209 0.582985 -1.737685
H -1.631129 2.011135 0.165738