20
H11 C7 N1 O1
C 1.232385 1.037223 -1.196573
C 0.432940 -0.023692 0.939294
C 1.543671 -1.006310 1.255219
O 2.288916 -1.550601 0.428833
C 1.807636 -1.226594 2.713502
C 0.151215 0.103116 -0.582842
C -1.271547 0.622285 -0.819470
N 1.952751 -1.291846 3.881422
C -2.349931 -0.471916 -0.620761
H 0.253614 -0.902861 -1.096385
H -2.337698 -0.884375 0.356052
H 0.643874 0.952646 1.384062
H -1.354636 1.056560 -1.785136
H -0.460179 -0.405649 1.487278
H -3.355774 -0.082614 -0.843208
H 2.217686 0.646109 -1.124955
H 1.013955 1.134073 -2.267717
H -1.424449 1.506197 -0.093626
H 1.212158 2.060516 -0.742320
H -2.196559 -1.272262 -1.272661