23
H14 C7 O2
C -2.645935 0.839500 -0.534902
C 0.852209 -0.633049 -0.110778
C 1.471751 -1.268835 1.185648
C -0.095514 1.139349 0.947734
C 1.083788 1.677540 0.265755
O 1.533667 0.494003 -0.507226
C 0.805709 -1.616015 -1.227216
C -0.540916 -0.098071 0.334697
O -1.373084 0.118153 -1.039695
H 1.772581 -0.400273 1.897359
H 1.861463 -1.926507 -1.505495
H -3.152983 0.306931 0.233845
H -2.398777 1.786130 0.042228
H 0.301760 -2.607541 -0.944953
H -3.252548 1.030320 -1.335304
H -0.556840 1.626850 1.737293
H 1.800480 1.927037 1.005948
H 0.814520 -2.023211 1.752272
H -0.831957 0.839870 -1.489326
H 0.949690 2.515115 -0.418568
H 0.312506 -1.247047 -2.067166
H 2.441898 -1.733131 0.913504
H -1.153474 -0.747128 0.864320