21
H12 C9
C -0.511283 -0.963275 -0.221646
C 1.556540 -0.339940 0.895440
C 1.128432 -0.716932 -0.496296
C -0.825786 -0.720331 1.334391
C -0.658846 0.535631 -2.365300
C -0.921731 0.765093 1.446714
C -0.512771 0.260620 -0.820628
C -0.934603 1.317709 0.043128
C 0.385405 0.022591 1.840470
H 0.066792 1.318215 -2.667660
H 1.492182 -1.733509 -0.790895
H -0.392514 -0.347303 -2.882042
H 0.631555 -0.034339 2.897688
H 2.151179 -1.215362 1.361336
H -1.110271 2.359760 -0.227071
H -1.678884 0.866284 -2.537318
H 1.745976 -0.025037 -1.168964
H -1.423795 -1.464306 1.931299
H -1.005282 -1.777693 -0.666699
H 2.259261 0.562163 0.904299
H -1.441573 1.329957 2.189767