21
H12 C6 N2 O1
C -1.251410 0.441273 -1.653883
C 2.165268 0.692159 0.991179
C 0.091760 1.113178 2.348694
N -0.861307 -1.927461 -2.506120
C -0.036506 0.053938 0.109987
C -1.238624 -1.071352 -1.396599
O -0.254819 -1.261379 -0.260098
C 0.793367 0.146409 1.364672
N -0.420109 1.026493 -0.540837
H -0.067811 2.115677 1.854775
H -0.404897 -2.850907 -2.063735
H -2.263442 0.918851 -1.745580
H 0.872457 -0.771998 1.861328
H 2.652728 -0.071860 0.211632
H 0.682380 1.243251 3.256085
H 2.876483 0.740096 1.822734
H -2.311241 -1.367558 -0.922621
H -1.606029 -2.128393 -3.145390
H -0.699163 0.574502 -2.721988
H -0.908493 0.737192 2.672552
H 2.189408 1.647879 0.463172