17
H8 C5 N2 O2
C 0.618422 -1.605415 0.863564
N 0.765530 0.475447 -0.365721
C -0.618832 0.693731 -0.205641
C -0.968117 -1.489570 0.551699
O 1.478586 1.552206 -0.950497
C -1.206038 1.962325 -0.635469
O 2.583521 -0.804029 -0.239864
C 1.450749 -0.691992 0.032350
N -1.443096 -0.162429 0.401052
H 0.827080 -1.418311 1.871232
H 2.348920 1.106120 -0.943951
H -1.162383 -2.150516 -0.304573
H 0.900357 -2.634720 0.604105
H -1.505109 -1.837004 1.487642
H -2.332229 2.002772 -0.566636
H -0.870162 2.239231 -1.662529
H -0.867208 2.762157 0.063229