24
H15 C7 N1 O1
C -1.504429 -1.252451 -0.979668
C -0.994657 1.072658 -1.850542
C -0.336506 0.869003 1.686273
C 2.398035 -0.727254 1.288607
C 0.207425 0.390372 0.306084
N -2.155143 -0.404844 -0.088950
C 1.096298 -0.951952 0.446262
C -0.953398 0.078234 -0.663072
O 1.097241 1.379562 -0.109871
H 1.452995 -1.213662 -0.622231
H -0.938559 0.089728 2.090783
H -1.006011 -2.140457 -0.442443
H 2.125027 -0.607464 2.278225
H -0.924917 1.800892 1.500186
H 0.536055 -1.747291 0.905060
H 1.492791 1.308155 -1.019378
H -0.986685 2.089786 -1.571995
H 2.940814 0.128162 0.869562
H -1.919149 -1.483461 -1.857162
H -1.921565 0.873311 -2.473062
H -0.157083 0.979112 -2.583471
H 2.980452 -1.640337 1.163217
H 0.540355 1.059231 2.267689
H -3.069416 0.050973 -0.540107