25
H16 C8 O1
C -0.660109 -2.001724 0.940376
C -1.072079 0.992126 -0.772283
C 1.919485 -1.156658 1.812714
C -0.088660 -0.109481 -0.548994
C 1.425845 1.988271 -0.549541
O 1.001828 -0.055906 1.482977
C -0.162165 -0.606449 0.937833
C -2.297661 0.649324 -1.702131
C 0.352817 1.133382 -1.237228
H -3.164010 0.439600 -1.079120
H 1.171042 3.096572 -0.838901
H -2.089276 -0.162348 -2.354736
H 0.487854 1.048815 -2.287846
H -1.351643 1.722250 0.013293
H -1.648919 -2.106319 0.475956
H -0.030188 -1.026835 -1.227745
H -0.795600 -2.401085 1.867509
H 0.024712 -2.706211 0.417275
H 1.535282 -1.836150 2.667586
H 2.421520 1.846191 -0.975087
H 1.421645 2.027375 0.526196
H -2.513714 1.509707 -2.373610
H 2.781342 -0.623315 2.360044
H -0.912387 -0.018733 1.511729
H 2.243051 -1.642399 0.933719