16
H7 C4 N3 O2
N 0.083004 -0.493098 -1.358574
C 0.244682 1.231306 0.409132
O -2.395005 -2.692898 -0.555119
N -0.577501 -1.637429 -1.814004
C 1.154412 0.818077 1.538724
C -0.310850 0.012275 -0.202744
N -1.349722 -0.771215 0.169033
C -1.424216 -1.680485 -0.725549
O 0.965640 1.893306 -0.519365
H 1.352256 2.717396 -0.144872
H -2.321225 -3.237757 -1.319905
H 0.925271 -0.145373 -1.988561
H -0.613325 1.802961 0.822908
H 2.087802 0.283474 1.247597
H 0.639136 0.178292 2.333242
H 1.539648 1.721146 2.108052