19
H11 C6 N1 O1
C 0.504059 0.585528 -2.109742
C 0.975857 0.672172 0.717903
C 0.997245 1.657501 -0.309614
C -1.053537 -1.688909 1.785919
N -0.445352 0.181767 0.325520
O 1.636906 1.313147 -1.530644
C -0.374061 1.099431 -0.838432
C -0.793806 -1.222601 0.259700
H 0.931614 0.937694 1.750188
H -1.236000 1.602787 -1.095170
H -0.170548 -1.497018 2.352540
H 1.791179 -0.121657 0.613829
H 1.153420 2.743494 -0.098662
H 0.602284 -0.434752 -2.202105
H 0.050997 -1.809113 -0.237933
H -1.292163 -2.728302 1.716241
H -1.658325 -1.322648 -0.304595
H 0.221131 1.175884 -3.020793
H -1.840922 -1.144401 2.225832