13
H4 C5 N1 O2 F1
O 1.149290 -0.958055 -1.120626
N -0.104025 1.179195 0.723447
C -0.074025 -1.461737 -0.790982
C 1.597206 0.248908 -0.784070
C -1.042029 -0.975905 0.002272
O -2.063798 0.544632 1.390570
C 1.071892 1.142371 0.161632
F 2.809241 0.345813 -1.240921
C -0.976825 0.338470 0.704588
H -1.894923 -1.537933 0.155798
H -1.962733 1.521512 1.780594
H -0.234886 -2.361959 -1.281304
H 1.725635 1.974693 0.299013