17
H8 C6 O3
C 0.655541 0.659768 2.313411
C -0.062161 0.485376 0.213933
C -0.508987 -0.663025 0.902222
O 1.201379 1.384929 3.337931
C -0.183648 0.896803 -1.237043
O 0.655182 1.260643 1.033828
C -0.022306 -0.530734 2.255598
O -1.094587 0.070366 -1.940776
C -0.561415 -1.067682 -2.529528
H 0.845974 0.992968 -1.645020
H -1.087635 -1.503319 0.515545
H -0.137021 -1.802865 -1.818077
H -0.600455 1.920030 -1.216339
H -1.383962 -1.569640 -3.121576
H -0.177267 -1.167050 3.093459
H 0.297290 -0.782537 -3.286368
H 2.164091 1.415959 3.128804