15
H7 C5 N3
C 0.274888 0.735707 1.191434
C -0.560016 -0.282465 1.146041
N -1.379833 -0.781188 2.228492
C 0.937183 0.792031 -0.157506
N 0.371572 -0.643087 -2.302109
C 1.819993 1.461401 -0.786018
C 0.274462 -0.190350 -0.889495
N -0.622371 -0.870594 -0.088969
H -1.431202 -0.218459 3.004590
H -0.954594 -1.806012 -0.267530
H -0.555309 -0.462191 -2.783418
H 0.467847 1.399074 1.991434
H 2.579722 1.921175 -1.450623
H 1.092324 -0.035737 -2.769564
H -2.314688 -1.019317 1.933247