17
H9 C6 N1 O1
C -2.191284 -1.430529 0.901905
C -0.083548 0.671306 0.092179
C 0.831619 -0.986109 -1.120765
C 1.155852 1.050174 -0.221849
C -0.326166 -0.691685 -0.441767
C 1.932021 2.280564 0.014639
O 1.738236 0.134640 -0.971085
N -1.447294 -1.402845 -0.427444
H -2.572762 -0.469368 1.106235
H 2.880339 2.044662 0.647422
H -1.609303 -1.934762 1.674122
H -0.790001 1.274155 0.684283
H 1.181717 -1.784697 -1.721049
H -3.083327 -2.088857 0.730679
H 2.290667 2.814886 -0.859097
H 1.389401 2.928295 0.599220
H -1.296150 -2.409809 -0.687648