16
H7 C6 N3
C -0.643403 -0.202190 -1.315763
C -0.830637 -0.008578 1.091573
N -0.809569 0.777254 -0.217696
C -0.409789 0.943417 2.241697
C 0.052496 -1.359743 -0.540557
C 0.668386 1.075432 -0.564264
N -0.023759 1.591907 3.082753
C 0.765042 -0.238057 -1.352694
N 0.036800 -1.126195 1.003732
H 1.485294 -0.524886 -2.034129
H 0.657325 1.896077 -1.282074
H 1.308033 1.259686 0.256012
H -1.898785 -0.304822 1.287514
H -1.379672 -0.343405 -2.107251
H 0.036650 -2.361511 -0.883838
H 0.985605 -1.074399 1.334982