18
H10 C6 N2
C 0.605928 0.541270 0.638616
C 0.398851 0.332329 2.175711
C -1.573989 -1.687789 -1.854151
N -1.802314 0.501774 -0.741187
C 1.749086 1.376771 0.183134
C -1.144902 -0.575384 -0.940737
C 0.146220 -0.627724 -0.177302
N 0.437386 1.977876 0.218589
H -0.115124 1.952672 -0.691254
H 0.776577 1.211794 2.712189
H -2.553481 -2.077340 -1.423584
H -0.637554 0.121768 2.313145
H 2.457558 1.752482 0.909218
H -0.813762 -2.478259 -1.810881
H 0.938701 -0.548131 2.461788
H -1.734304 -1.318102 -2.851263
H 2.145748 1.047338 -0.813601
H 0.719348 -1.503329 -0.308422