16
H8 C5 N2 O1
C 0.875159 0.790682 0.179897
C -0.914940 -0.879690 0.325312
N -3.458764 -0.485807 1.004920
C 1.267704 2.172493 -0.033247
C -2.340421 -0.642284 0.691193
N 1.669667 -0.235717 0.533677
C -0.785919 -1.735092 -0.772238
O -0.383337 0.503886 0.085138
H 0.670789 2.830416 0.630810
H 0.970422 2.472629 -1.063242
H 0.317990 -1.869941 -1.115223
H 2.320520 2.337729 0.105755
H 2.634470 0.078810 0.570679
H -1.223205 -2.718561 -0.611615
H -0.352474 -1.225485 1.214843
H -1.267666 -1.394062 -1.746659