16
H7 C6 N1 O2
O 1.796274 -0.622425 1.870905
C 0.130775 0.339144 0.690618
C 0.562764 -0.816337 0.031126
C -0.884436 1.042598 -0.148350
C 0.909146 0.452571 1.839398
C 1.603150 -1.317369 0.776414
N -0.274051 -1.159378 -1.004122
C -1.386210 -0.173240 -0.943565
O -0.375766 1.988205 -1.044107
H 2.227200 -2.244015 0.621261
H -1.650029 1.614146 0.414812
H -1.849873 0.026370 -1.899775
H -2.260306 -0.561028 -0.305647
H 0.302966 1.570884 -1.652361
H 0.997529 1.070368 2.688531
H 0.150862 -1.210506 -1.935112