21
H12 C6 N2 O1
C -2.569399 -0.513195 0.401624
C -0.233015 0.717498 0.590553
C 2.718550 0.177418 -0.358656
N -1.979451 1.352587 2.006648
C 1.468662 -0.000849 -1.257331
C 1.332474 -1.446707 -1.580733
C -1.656155 0.524095 0.975522
N 0.130958 0.167135 -0.663798
O 0.599058 1.329020 1.217822
H 3.645654 0.047085 -0.872303
H 1.467036 0.597359 -2.119322
H 1.346747 -1.676638 -2.606196
H -3.271404 -0.859946 1.067179
H 1.291653 -2.154099 -0.876274
H -1.133886 1.815966 2.362411
H -3.148631 -0.051229 -0.413419
H -0.660629 -0.341295 -1.131064
H -2.039176 -1.364709 0.114258
H -2.675225 1.000259 2.618610
H 2.647296 -0.514933 0.497926
H 2.718875 1.195164 0.026485