15
H6 C5 N4
N -0.052268 -1.630480 -1.730740
C -0.642444 -0.822403 -0.845687
N -1.742146 -0.336615 -0.401983
C -0.288525 0.761891 0.752584
N -1.560058 0.596547 0.560494
C 0.241803 1.615764 1.769565
C 1.548215 -0.716049 -0.690136
C 0.374038 -0.209085 -0.148795
N 1.275236 -1.556143 -1.628250
H -2.694030 -0.515035 -0.752790
H -0.469240 2.163535 2.246557
H 0.959518 2.359618 1.281116
H -0.446464 -2.280575 -2.433360
H 0.896922 1.084356 2.480653
H 2.599434 -0.515315 -0.459238