10
H1 C2 N5 O2
O -1.859136 -0.794925 0.153284
C -0.250657 0.464262 0.482797
N -1.423003 0.343654 0.915189
N 0.902335 1.309253 0.666940
C -0.905464 -1.310154 -0.691646
O -1.031631 -2.107484 -1.439831
N 0.169538 -0.455225 -0.495092
N 1.921974 0.803941 -0.134106
N 1.476894 -0.174863 -0.790095
H 0.999176 1.921546 1.332559