17
H8 C7 O2
C -1.487339 0.073545 -0.840390
C -1.015704 -1.079751 0.067268
O -2.630320 0.508692 -1.027297
C -0.087000 0.324454 -1.411104
C 0.698133 1.323866 -0.544692
C 0.475454 0.087904 1.675310
C 0.881462 1.259202 0.849523
C 0.254916 -1.171807 -0.804550
O -0.785827 -0.591812 1.429806
H -1.679038 -1.943896 0.146430
H 1.264597 -1.339808 -0.391506
H 0.025703 0.514272 -2.413864
H 0.075525 -1.948357 -1.588992
H 1.413066 2.019043 1.338268
H 1.045559 2.203902 -1.047411
H 0.240009 0.477209 2.782246
H 1.310829 -0.716661 1.780945