18
H10 C6 O2
O 3.021167 -0.149701 0.869728
C 0.615978 0.734453 1.205593
C 1.848316 -0.221427 0.873435
C -1.883830 1.172454 -0.835886
C -0.776470 0.119313 -0.957388
C -0.276624 -0.298008 0.384004
C 0.869690 -1.361225 0.464766
O 1.253180 -1.892191 -0.819930
H 0.071513 0.569091 -1.470493
H -1.098777 -0.747032 -1.545500
H -2.243358 1.484469 -1.832487
H -2.738284 0.745520 -0.327422
H 2.216124 -1.832764 -0.951305
H 0.752641 -2.122185 1.203003
H -1.128274 -0.704658 1.025944
H 0.401619 0.798217 2.252797
H -1.632280 2.015221 -0.310614
H 0.727653 1.690445 0.771751