18
H9 C7 N1 O1
C -0.199590 1.167866 -0.816814
C -0.175582 0.059729 0.120496
C -0.986633 0.856912 -1.902374
C 2.219962 0.675198 1.218682
C -1.635323 -0.389930 -1.640399
O -1.472655 -2.125391 0.183106
C 1.048271 -0.284252 1.002800
C -1.169661 -0.948378 -0.474405
N -0.156011 0.107377 1.603642
H 2.728763 0.399093 1.989792
H 1.383507 -1.346865 0.863027
H 2.806132 0.771141 0.369206
H -2.391309 -0.890150 -2.274727
H -0.576518 -0.732108 2.023969
H -1.250669 1.450046 -2.690880
H -2.291668 -2.461778 -0.270019
H 1.737923 1.662858 1.430252
H 0.381057 2.028628 -0.735368