19
H10 C6 O3
C 1.345289 -1.224504 0.505872
C -2.390707 0.782754 -0.764401
O 0.410072 -0.544139 -1.637346
O -3.466272 0.933547 0.155681
C -1.010410 0.755522 0.046380
C 1.296405 -0.173932 -0.488725
C 2.648065 -1.540717 1.251637
C 0.133565 0.699722 -0.882179
O 1.602006 -0.794676 1.880715
H -1.053115 -0.065152 0.718393
H -2.476940 -0.148340 -1.310930
H 0.320135 1.557762 -1.510343
H 2.284403 0.307222 -0.702998
H -3.342366 1.868614 0.608647
H -2.367541 1.542839 -1.464605
H 3.500448 -1.018162 0.976981
H 2.846237 -2.524846 1.662947
H 0.697629 -2.080904 0.346627
H -0.976889 1.667403 0.607651