21
H12 C8 O1
C 1.095922 0.194784 2.224757
O -0.390110 -1.300143 -2.311769
C -0.714692 -0.985195 1.131877
C -0.767667 0.106864 -2.150398
C -0.490054 0.637265 -0.802868
C 1.426910 0.309223 0.969201
C 0.324735 -0.314003 0.090382
C -0.226679 -0.310543 2.483691
C 0.148422 1.251972 -2.063175
H 1.649634 0.567818 3.070168
H -1.725880 -0.805373 0.860238
H -0.358891 -1.056275 3.283890
H -0.942555 0.507622 2.770833
H 0.116205 -1.399166 -3.056982
H -0.144764 2.248140 -2.392775
H -1.736902 0.278716 -2.683763
H 0.958414 -0.960334 -0.639031
H 1.210643 1.093325 -2.154469
H -1.215111 1.281141 -0.307424
H -0.522172 -2.013180 1.159703
H 2.304598 0.667360 0.517908