13
H4 C4 N3 O1 F1
N 0.864949 0.787860 -2.107612
C 0.699053 -1.227584 1.637449
N 1.553711 -1.501813 2.344226
C 0.645896 0.012833 -1.086126
F 1.511846 -0.919024 -0.861042
C -0.571071 -0.729128 0.946571
N -0.203828 0.193333 -0.111633
C -1.094909 1.363633 -0.153601
O -1.358117 2.006352 -1.051787
H -1.239052 -0.311906 1.640692
H -1.453147 1.547510 0.896452
H 1.674647 0.469035 -2.618189
H -1.029977 -1.691095 0.524598