14
H6 C5 N2 O1
N -0.484401 0.157702 -0.374726
C 0.475845 -0.561884 1.425090
O -3.059999 0.206898 0.809689
C -0.778611 -0.158967 0.977615
C 0.892749 0.026193 -0.574632
N 1.407927 -0.393187 0.540849
C 1.476062 0.363022 -1.820553
C -2.112762 -0.176752 1.464533
H 1.376699 1.447283 -2.039206
H 2.551891 0.082121 -1.815114
H 0.610420 -0.896204 2.512258
H 0.993428 -0.193544 -2.670232
H -1.153676 0.564699 -0.963416
H -2.195558 -0.467372 2.527864