16
H7 C7 N1 O1
O 1.242782 -0.394017 -1.658451
C -1.540477 0.167410 1.854568
C 0.896770 -1.034302 -0.303393
C 0.950043 -0.059678 0.914020
C 0.420271 1.332475 0.603490
C -0.597847 -0.699246 -0.463274
C -0.210297 -0.107913 -1.913165
C -0.540306 0.154183 0.765952
N -2.292506 0.154027 2.673501
H 1.534366 -0.241436 1.794786
H -1.381741 -1.428863 -0.521856
H 1.327940 -1.995213 -0.208743
H -0.348888 0.958614 -1.981305
H -0.585352 -0.637984 -2.724796
H 0.497747 2.015309 1.480617
H 0.627498 1.816680 -0.311937