16
H7 C6 N3
C 1.032583 1.104931 -0.757429
C -2.255842 0.474937 0.542895
C -0.008807 -0.573797 0.130971
C -0.810950 0.700323 0.628952
C 1.445578 0.113895 0.253757
N -0.347256 -1.826689 0.556261
C -0.023748 0.188986 -1.299016
N -0.403426 1.481566 -0.615286
N -3.391459 0.268487 0.530618
H -0.581360 1.142868 1.575210
H 1.764766 0.443049 1.299421
H -0.299410 -0.114265 -2.290379
H 0.231936 -2.159722 1.288863
H -0.196755 -2.483224 -0.288946
H 2.230187 -0.533325 -0.181880
H 1.613995 1.772037 -1.373999