19
H10 C8 O1
C 0.550924 0.055279 0.362516
C -0.792080 1.559936 0.272523
C -1.226748 -1.384282 -0.844740
C 0.130290 -0.695394 -0.931757
C 1.214565 -1.534363 -1.272268
C 0.474539 1.428993 0.625531
C -0.181082 1.945413 1.970681
C 2.157514 -2.256176 -1.505348
O -1.492226 1.417213 1.480720
H 2.947494 -2.941038 -1.748337
H 0.018174 0.073541 -1.754812
H -1.118293 2.333807 -0.437141
H 1.709679 0.946331 -0.088554
H 0.571630 -0.541397 1.225729
H -1.194124 -2.102295 0.065616
H 0.091327 1.403818 2.805796
H -2.105010 -0.710520 -0.659211
H -0.303099 3.010204 2.187144
H -1.453487 -2.009092 -1.754066