18
H9 C7 N1 O1
C 1.938434 -0.900790 -0.277571
C -0.025338 1.435902 1.699083
C -0.524408 -0.087430 -0.606705
O -0.663931 -0.518362 -1.923012
C -1.272719 1.502821 1.074836
C 0.938994 0.247001 -0.192333
N 1.037881 0.845807 1.117311
C -0.887654 -1.502540 -0.940383
C -1.550107 0.783171 -0.056955
H -2.058192 2.124954 1.520610
H 1.920310 -1.345409 -1.257993
H 1.184135 1.057288 -0.919200
H 2.919635 -0.452552 -0.014873
H -2.496499 0.751530 -0.594885
H -0.187355 -2.347256 -0.921114
H 0.092112 1.892020 2.620763
H 1.609100 -1.658644 0.447186
H -1.974417 -1.827532 -0.774762