12
H6 C6
C 1.075485 0.811423 -0.439392
C -0.969926 0.467074 0.821993
C -1.628445 0.675522 1.851611
C 2.167573 1.344410 -0.424753
C -0.123636 -1.395569 -0.589410
C -0.248591 0.161691 -0.375239
H -2.206250 0.877343 2.733636
H -1.133596 -1.813152 -0.601967
H 3.083766 1.826238 -0.469745
H 0.421789 -1.853184 0.237613
H 0.394661 -1.611706 -1.505697
H -0.832823 0.509925 -1.238662