12
H6 C6
C 0.351951 -0.299404 1.365578
C 0.992797 0.194454 -1.006487
C 1.728502 0.790807 -1.726904
C 0.009842 -0.508430 -0.071000
C -1.431365 -0.046234 -0.400882
C 0.505757 -0.116086 2.445107
H -2.113822 -0.621584 0.186432
H -1.540594 1.038991 -0.169279
H 2.366050 1.268227 -2.368093
H -1.656745 -0.163312 -1.455569
H 0.687085 0.019222 3.518625
H 0.100538 -1.556655 -0.317532