15
H6 C7 O2
O 0.377353 0.354589 1.516121
C -1.161977 0.629909 -0.400758
C -1.594280 -0.784263 -0.418564
C 0.358756 1.153661 -0.441582
C -0.513480 1.314090 0.825239
O 2.693674 -1.401537 -0.475028
C 1.611262 -1.077757 -0.004183
C 1.280106 0.274224 0.375827
C -1.936221 -1.915142 -0.514648
H 2.149134 0.883426 0.627037
H -0.890957 2.088194 1.304445
H -2.289982 -2.900178 -0.629275
H -1.838472 1.274634 -0.879733
H 0.917010 -1.938935 0.225652
H 0.574577 1.728853 -1.283694