16
H7 C7 N1 O1
C 0.321843 1.026187 -0.295204
C 0.402334 -1.342820 -0.748356
C 0.292349 0.340265 1.015147
N -0.100669 -2.820687 2.604842
O -0.202321 1.338508 1.748467
C -0.131479 0.013813 -1.336290
C -0.565181 2.084423 0.490071
C 0.069261 -1.933153 1.816119
C 0.304302 -1.020345 0.781166
H -1.649782 2.065134 0.281215
H -0.153434 -2.167146 -0.956766
H 0.326304 0.086146 -2.394712
H -0.196065 3.084821 0.552334
H 1.268508 1.529706 -0.589131
H 1.469041 -1.588442 -0.964826
H -1.204540 -0.072778 -1.488302