15
H6 C6 N2 O1
C -0.712789 -2.686290 -1.304044
N 0.324920 0.605026 0.201127
C -0.042967 -1.733833 -1.040334
C 0.829126 -0.638035 -0.744507
C -0.749368 0.234505 1.129509
C -0.469718 1.502689 2.006184
O -1.477696 -0.589194 1.212327
C 0.601938 0.696421 -1.220981
N 0.623885 1.710343 1.101365
H -0.355095 2.432615 2.391928
H -1.058435 1.109273 2.958195
H -0.273467 0.910563 -1.826462
H 1.862956 -0.990090 -0.491630
H 1.489718 1.209432 -1.522669
H -1.353914 -3.434397 -1.632613