17
H8 C8 O1
C -2.375536 1.400743 -0.491598
C -0.430990 -0.144952 -0.728323
O 2.108427 -0.704222 -0.968492
C 2.056974 0.034902 0.244055
C 1.100616 -1.686798 0.784761
C -3.264190 1.898566 -1.087953
C -1.285562 0.827807 0.210574
C 0.816102 -0.674845 -0.164648
C 2.383704 -1.047833 1.211851
H -1.542195 0.189137 1.127518
H -0.238836 0.309759 -1.727368
H 3.110580 -1.389653 1.853989
H -4.146188 2.383607 -1.449267
H -1.123632 -1.058993 -0.947395
H 2.223118 1.057717 0.361053
H 0.608600 -2.504676 1.143813
H -0.596729 1.526631 0.518577