22
H14 C6 O2
C -0.350055 1.949044 -2.341697
C 0.505822 1.403077 -1.161365
C -1.152260 -1.734481 1.639700
C 0.475349 0.049495 1.081469
C 0.257046 -1.420973 1.470283
O 0.947631 -2.206827 0.418680
C -0.286242 0.502435 -0.226987
O 1.894536 0.213257 0.866628
H 0.220240 2.581138 -3.010157
H 0.156113 0.724180 1.827593
H -0.608758 -0.376801 -0.809322
H -1.134503 -2.739528 2.010924
H -1.739074 -1.110242 2.361090
H 0.573452 -2.174047 -0.441564
H 2.280645 -0.545862 0.678775
H -1.721258 -1.805092 0.698611
H -1.221739 1.054050 0.023742
H 0.851950 -1.558971 2.356578
H -1.160270 2.483955 -1.948588
H 0.884392 2.267393 -0.564507
H -0.621512 1.048679 -2.881483
H 1.387509 0.881444 -1.509914