18
H9 C6 N1 O2
O -0.302616 2.258639 1.970760
C 0.092716 2.201547 0.874553
C -0.969526 0.167699 -0.188962
N -0.435694 1.468363 -0.146929
C 1.507827 -0.019207 -1.032986
C 0.096485 0.518816 -1.131058
C -0.825328 -0.853747 0.995859
C -0.782248 -2.342218 0.585063
O -1.205992 -3.230558 1.189713
H 0.898052 2.846204 0.448592
H -1.972705 0.095602 -0.661841
H -0.180752 0.798286 -2.100475
H 0.179221 -0.649971 1.486605
H 1.776385 -0.449255 -0.128140
H -0.127227 -2.468480 -0.329931
H 2.286403 0.713956 -1.296683
H -1.591297 -0.788924 1.683112
H 1.652604 -0.806611 -1.762583