21
H12 C6 O3
C 0.557102 -1.293057 1.139477
O -2.178143 0.329911 0.568429
C 0.329538 1.094835 0.102558
C -1.627797 -0.580284 0.123216
C -0.009004 -0.452613 -0.007879
C -0.678465 2.399402 0.139269
O -2.127173 -1.658322 -0.240779
C 0.397504 -1.099116 -1.339785
O 1.798820 -1.299833 -1.375352
H 0.407315 -2.320465 0.926085
H 0.215650 -0.450529 -2.164030
H 2.039123 -2.076964 -0.973679
H 0.372279 1.404489 -1.149614
H 1.586886 -1.101030 1.342969
H 1.451904 1.158477 0.009681
H 0.422627 1.237909 1.299963
H -0.169904 -2.070907 -1.430119
H -1.353885 2.344206 -0.672443
H 0.022405 -1.123998 2.077756
H -0.175153 3.235384 0.146402
H -1.361838 2.410913 1.015119