16
H7 C5 N3 O1
C 1.034271 -0.555867 0.910675
N 0.759469 0.222392 -0.971084
C -0.254455 0.003262 0.229229
C -1.384282 -0.164087 1.364878
C 1.744942 -0.206637 -0.162543
O -1.513790 0.363210 -0.437304
C 0.726064 0.593062 -2.325269
N -1.553258 -0.563634 2.615857
N -2.275805 0.196554 0.659921
H 0.053894 0.029370 -2.985626
H 1.766829 0.429843 -2.799315
H 0.436053 1.662044 -2.404426
H -0.900945 -0.359870 3.315799
H -2.449662 -0.367613 3.059951
H 1.396857 -0.969895 1.827674
H 2.789390 -0.354441 -0.484007