23
H14 C8 O1
C 0.880436 0.403130 1.385026
C -0.380568 -1.311735 0.110876
C -2.133735 0.222662 -0.973486
C -0.187852 1.049093 0.493862
C 2.001271 -0.407788 0.749725
C 0.769328 -1.076965 1.226570
C -0.641100 0.011181 -0.596236
C 0.098833 0.157233 -1.953777
O 1.150283 0.903224 2.583063
H -0.273663 -0.502910 -2.670253
H 2.901390 -0.553398 1.410447
H -1.001492 1.346706 1.139774
H 0.063036 1.148689 -2.304473
H 0.817140 -1.786434 2.093247
H 1.144963 -0.144544 -1.874629
H 0.207707 1.955746 0.022845
H -0.055320 -2.122830 -0.603620
H 2.302268 -0.355566 -0.333914
H -2.646850 0.223882 -0.022611
H 1.727294 1.730852 2.530652
H -2.296550 1.181667 -1.372083
H -1.283123 -1.647832 0.648223
H -2.508801 -0.562255 -1.590079