18
H9 C5 N1 O3
O 0.304147 -1.942423 0.073495
C -0.883027 0.134452 -0.363238
C 1.662804 -0.298546 -0.976472
N -0.691812 1.516027 -0.489300
C 0.514459 -0.558048 0.040135
C 0.977188 0.003466 1.326326
O 1.300446 -0.587144 2.292070
C -1.907495 -0.266033 0.652815
O -2.024130 -1.302621 1.148800
H -1.185685 -0.396622 -1.322609
H -0.035951 -2.122425 0.983796
H 2.538129 -0.722018 -0.685173
H -0.890032 2.033765 0.315652
H 1.770701 0.780871 -1.172311
H 1.103981 1.156487 1.358050
H -0.757751 1.923689 -1.378527
H -2.545411 0.545520 0.980104
H 1.371084 -0.713884 -2.000427