19
H11 C6 N1 O1
C -1.058316 0.804617 -0.070729
C -0.108349 -0.372366 0.068500
C 2.336822 -0.752756 0.326198
C 2.147212 -0.697627 -1.080952
C -2.458628 0.433392 -0.617072
O -0.717742 -0.648600 1.446864
C -0.859505 0.779972 1.602769
N 1.213196 0.040195 -0.175914
H 2.021944 -1.647325 0.935039
H 1.721933 -1.559611 -1.542385
H 3.202297 -0.274510 0.782728
H -0.308373 -1.309862 -0.490632
H 2.815867 -0.049318 -1.673303
H -0.690152 1.701316 -0.560864
H -3.200451 1.099390 -0.272825
H 0.100885 1.189566 1.951111
H -1.703518 1.145697 2.046661
H -2.438989 0.387605 -1.671754
H -2.786663 -0.622532 -0.246219