17
H8 C7 O2
C 1.061269 -0.290435 -1.484704
O 2.112880 -0.901892 -0.736029
C -1.979912 0.182411 0.943971
C -0.036692 -1.004488 -0.490876
C -0.718574 0.225827 0.202533
O -0.745365 1.188618 -0.939124
C 0.681624 1.100394 -0.951231
C 0.701584 0.585417 0.590184
C 1.269164 -0.798176 0.446413
H 1.020157 -0.513971 -2.546261
H -2.258200 1.141177 1.399513
H -2.841254 -0.202783 0.398334
H -0.503754 -2.032738 -0.736703
H -1.839454 -0.528077 1.803645
H 1.527343 -1.572066 1.208999
H 1.193850 1.969783 -1.387519
H 0.971847 1.350974 1.365950