19
H10 C7 O2
C 1.156935 -0.373067 0.340465
C -1.340955 -1.320365 0.333981
C -1.158395 -1.349038 -0.973568
C -1.044670 -0.104759 1.071637
C 0.224700 -0.777529 1.555554
O -0.690618 1.077534 0.367512
C 0.535176 1.384104 -1.566746
O -1.375581 -1.480550 -2.066082
C 0.614231 1.126022 -0.124560
H -2.166259 -2.001366 0.469255
H -0.187892 0.758010 -2.127404
H 1.027445 -1.023025 -0.503645
H -1.861297 0.087360 1.810289
H 0.257475 2.439378 -1.702019
H 1.521533 1.275566 -1.985566
H 2.200956 -0.294922 0.672578
H 0.305011 -1.791120 1.837217
H 0.616137 -0.275206 2.469050
H 1.112024 1.738697 0.532417