20
H11 C7 N1 O1
C 0.732219 2.294346 0.045239
C -0.607125 -0.946333 0.483835
C -0.350109 0.255464 1.463753
N -1.132007 0.648844 -1.514260
C -0.056318 -0.097658 -2.130076
C 0.573931 0.892634 0.355000
C -0.121011 0.016126 -0.633314
C 0.369186 -2.082752 0.690752
O 1.703295 2.998621 -0.008632
H 0.100581 0.002364 2.402405
H 0.271587 -2.786933 -0.129599
H -1.639673 -1.301612 0.419819
H 0.066774 -2.639564 1.640670
H -1.280508 0.875976 1.539950
H 0.680583 0.449802 -2.658307
H -0.331046 -1.058716 -2.583166
H 1.385295 -1.762748 0.778694
H -2.063981 0.386205 -1.242424
H 1.670749 0.530084 0.483474
H -0.254107 2.840147 -0.088004