19
H10 C6 N2 O1
C -1.961464 2.167697 -0.428093
C -0.449107 -1.208805 -0.089964
C 1.346310 -0.671098 -0.919466
C 1.385530 -0.741070 1.684084
C -1.050879 1.012714 -0.168789
N 0.354972 -1.670661 -1.270219
O -1.503902 -0.219905 -0.576471
N 0.128539 1.062602 0.377164
C 0.628643 -0.287146 0.458048
H 0.714277 -0.640253 2.491833
H -1.517855 3.102240 -0.088630
H 2.392578 -1.139205 -0.842839
H -2.137504 2.156255 -1.450664
H 1.408745 0.155060 -1.653873
H 2.193976 0.021653 1.883259
H -0.955346 -1.925069 0.512616
H -2.948261 2.029965 0.092089
H 1.847769 -1.656821 1.630150
H 0.597604 -2.579664 -1.155980