17
H8 C8 O1
C 0.767431 -0.836940 -0.181116
C -0.539715 -1.566989 -0.391799
C -0.928148 0.739166 0.453567
O 2.610725 0.552472 1.734347
C 1.472109 0.887594 1.771739
C 0.786253 0.443779 -0.892700
C -0.729301 0.844129 -1.093898
C -1.436659 -0.323315 -0.513911
C 0.558529 0.431754 0.605262
H 1.038401 1.548414 2.443493
H -0.542350 -2.171232 -1.279765
H -2.499537 -0.471430 -0.596300
H -1.162053 1.614447 -1.743991
H -0.762931 -2.285300 0.432748
H -1.538488 1.321423 1.124140
H 1.710766 -1.382762 -0.031635
H 1.624661 0.957085 -1.349509