18
H10 C7 O1
C -0.282879 -1.515899 1.763206
C 0.512362 1.702232 -0.153526
C -0.610129 -2.402725 0.696106
C 0.135247 0.194331 0.133525
C 0.061531 -0.242303 1.387499
C -0.090663 -0.771524 -0.884854
C 0.383550 2.039861 -1.621545
O -0.272288 -2.095299 -0.603964
H -0.629299 1.942723 -2.008387
H -0.166824 -3.439890 0.790143
H 1.551183 1.856069 0.133152
H -0.144846 2.277040 0.397122
H -0.028075 -0.546219 -1.978219
H 0.292373 0.464148 2.251625
H 1.068766 1.543173 -2.275969
H -0.302614 -1.880995 2.734638
H 0.673928 3.141636 -1.712121
H -1.805821 -2.609047 0.641957