19
H10 C6 O3
C 0.296209 -0.216611 -0.932076
C 1.062444 1.157147 -0.849300
C 0.841412 0.576793 1.289512
O 0.670379 1.686595 0.416768
C 0.514009 -0.694052 0.513052
O 1.283699 -1.829811 0.727138
C -1.085598 -0.234948 -1.527976
C -0.460269 -0.278846 1.542316
O -1.776624 0.254067 1.348330
H -1.621634 1.184833 0.956301
H -1.010691 0.162233 -2.589627
H -1.489046 -1.094273 -1.518376
H 0.957910 -0.908821 -1.597158
H -0.449425 -0.879411 2.476737
H -1.771774 0.494136 -0.986971
H 2.103348 1.110974 -0.953865
H 0.668341 -2.708574 0.681339
H 1.627514 0.623286 2.051879
H 0.646018 1.968619 -1.579595