18
H9 C6 N3
N 0.054108 -0.085289 -0.186700
C -0.500007 -1.193319 0.533634
C 0.762723 1.002071 0.459042
C -1.082441 0.284044 -1.119435
N -1.914501 -0.758603 -1.336216
C -0.654026 0.958262 -2.351536
C -1.563998 -1.740179 -0.438226
C 2.043129 0.434208 1.182492
N -0.314122 1.450448 -3.305401
H -1.690825 1.126926 -0.547080
H 0.176978 1.562792 1.192347
H 0.272065 -1.952097 0.708247
H 1.146531 1.688775 -0.388396
H 1.785012 -0.174143 2.006525
H 2.651532 1.293624 1.567098
H -0.994419 -0.885571 1.482198
H -2.032528 -2.696982 -0.460587
H 2.655257 -0.108361 0.511773