15
H8 C6 O1
C 1.265033 0.095424 1.388005
C -0.858927 0.093042 -1.901259
C -1.506335 0.488180 -0.575985
C -0.216289 0.030670 -0.010522
C -0.321792 0.104255 1.341506
O -0.302287 1.407148 -0.451347
C 1.018963 -0.802738 0.123825
H -0.888257 -0.218713 2.095805
H -0.885965 0.869604 -2.578396
H -0.910395 -0.911136 -2.198289
H 1.692538 -0.376071 2.287452
H 0.795224 -1.859884 0.431878
H 1.753140 -0.740510 -0.690712
H 1.835503 0.942749 1.005099
H -2.439582 0.642707 -0.271397