20
H11 C8 N1
C 1.730017 -1.122516 -0.199193
C -1.662938 -1.080428 -0.089005
C -1.378879 0.894672 0.724566
N -1.708013 0.315954 -0.614580
C 1.576055 1.244974 -0.905758
C 1.173688 0.266377 0.096581
C 0.348117 1.674958 -1.237206
C -1.551912 -0.432492 1.383548
C -0.283235 0.785062 -0.286453
H 1.478323 -1.377413 -1.189451
H 2.513422 1.470868 -1.201841
H 2.789501 -1.160714 -0.080999
H -0.706243 -0.834304 1.982377
H 1.262469 -1.951254 0.414142
H 1.368065 0.514382 1.149709
H -1.879936 1.758150 1.099401
H -2.408528 -0.563429 1.996614
H -0.979025 -1.674325 -0.659499
H -0.082450 2.307518 -1.990803
H -2.725742 -1.429412 -0.168146