15
H6 C5 N2 O2
C 0.016694 -0.162004 0.415727
O -0.460052 -0.765873 -0.655933
C -0.308385 -0.170843 -1.933858
O 0.350439 -0.270759 2.715275
C 0.301547 1.057409 -1.999074
C -0.087808 -0.808525 1.786233
N 0.584991 0.981039 0.366677
C 0.767609 1.563662 -0.852006
N -0.765527 -1.996861 1.732587
H -0.878645 -2.491116 2.572356
H 0.892988 1.448133 1.272491
H -0.770718 -0.808651 -2.684446
H -1.184678 -2.373110 0.785601
H 1.260802 2.615670 -0.816018
H 0.345610 1.543360 -2.943162