24
H16 C7 O1
C 1.408041 -0.427097 -0.494147
C -0.412781 1.310636 -0.344163
C -0.138034 -0.850875 2.298488
C -0.883925 -0.750578 0.991713
C -0.785401 -1.049664 -1.471800
C -0.008830 2.106938 -1.547444
O 2.015138 -0.468415 0.815190
C -0.152909 -0.230920 -0.274049
H -0.589568 -0.574425 -2.374554
H -1.838272 -0.978050 -1.300856
H 1.595302 -1.267450 -1.036888
H 0.595642 -1.500291 2.358211
H -0.256213 3.173422 -1.357344
H -0.410553 1.689399 -2.414574
H 1.837400 0.386996 -1.069432
H -1.233023 -1.790134 0.742507
H 0.118654 1.740579 0.619888
H 1.135773 2.139105 -1.700618
H 0.242474 0.112117 2.578534
H -1.481356 1.411519 -0.223690
H -1.780316 -0.139731 1.144585
H -0.856922 -1.122702 3.200064
H 2.072616 0.450763 1.170418
H -0.472148 -1.989599 -1.461288