18
H9 C7 N1 O1
C -0.629706 1.309332 0.422775
C 1.279962 -0.612412 -0.187699
C -0.735045 -1.626793 -1.424596
C -1.120233 -0.179314 0.711042
N -0.510486 0.870348 -1.073102
C 0.734404 1.503318 0.899468
O -1.703619 -2.242025 -1.197208
C -0.299346 -0.456581 -0.549087
C 1.668154 0.542833 0.655867
H 1.371891 -1.582655 0.434279
H -1.320693 2.059479 0.552056
H 2.680381 0.625133 0.948871
H -1.422794 0.918648 -1.550116
H 1.829245 -0.703293 -1.070984
H -0.157079 -1.825688 -2.376278
H -2.248396 -0.258986 0.542022
H -0.827387 -0.607838 1.721319
H 0.985935 2.402262 1.384118