14
H5 C4 N5
N 0.335531 -2.127175 1.373134
C -1.270560 -0.612095 1.521692
N 0.514407 -1.107193 0.469649
N -0.745091 -1.755039 2.009551
N 1.084004 0.371419 -0.987771
C -0.483069 -0.136138 0.507821
C 1.499482 -0.822665 -0.414124
C -0.116836 0.813262 -0.437853
N -0.597517 2.052457 -0.782238
H 2.378262 -1.415308 -0.604705
H -0.615285 2.219440 -1.780941
H 1.629872 0.871582 -1.677667
H -1.536875 2.188090 -0.354048
H -2.217398 -0.268287 1.869090