14
H6 C6 O2
O 0.774453 -1.621969 -0.312218
C -0.777689 1.115622 -0.456938
O -1.519866 2.160468 -0.628666
C -0.297086 -1.086314 0.578351
C 0.529595 -0.482041 -1.163629
C -0.989209 -0.377084 -0.671362
C 0.686249 0.893815 -0.112529
C 0.454667 0.068961 1.244535
H -0.053884 0.736995 1.943787
H 1.464192 -0.267917 1.698517
H 1.470760 1.609019 -0.190355
H -0.790405 -1.889320 1.163805
H 0.880697 -0.395964 -2.054115
H -1.829655 -0.757647 -1.095941