19
H10 C6 N2 O1
C 1.008345 1.648371 1.547937
C -1.041474 0.052397 1.588047
N -0.660345 0.116113 -3.143485
C -0.307057 -0.281347 0.302732
N -0.507051 0.580825 -0.833944
C 0.466920 0.247765 1.530901
O -0.279465 -1.553921 -1.649852
C -0.473029 -0.218797 -1.854026
C -0.012922 -1.700408 -0.156488
H -0.861984 -0.605052 -3.790890
H -0.061617 0.897922 -3.426622
H 1.137121 2.064428 2.544505
H -0.714967 -2.434582 0.174465
H -1.709544 0.900693 1.560909
H 0.370365 2.335808 0.996062
H 2.069528 1.736194 1.061100
H 1.058985 -0.498301 2.033736
H -1.394016 -0.815251 2.175634
H 0.974927 -2.076431 0.035718