17
H8 C7 O2
C -0.063443 0.465695 1.380794
C 0.247577 -0.901666 0.792628
C 0.319385 1.429333 0.206620
C -1.354813 0.073726 -0.763047
C 0.997375 -0.691072 -0.532216
O 2.338563 -0.533066 -0.401486
C 0.088189 0.588149 -0.914987
C -1.163672 -0.387711 0.667918
O 0.731531 2.532745 0.410967
H -2.034252 0.817570 -0.803053
H -1.949267 -0.895626 1.256902
H 0.336918 1.067722 -1.913932
H 0.664034 -1.556621 -1.273528
H 2.686774 -0.217122 -1.226995
H -1.655938 -0.708703 -1.373171
H 0.546630 -1.654526 1.480189
H -0.035951 0.764317 2.380210