19
H10 C8 O1
C -0.650657 0.080826 -1.624164
C -0.570906 1.567089 1.086831
C 0.156549 1.222596 -1.213336
C -0.287453 2.056667 -0.091889
C 0.578888 -0.668972 0.503178
O -0.812486 -0.351232 2.499246
C -0.325560 0.164475 1.380654
C 0.396212 -2.131712 0.716980
C 0.602296 -0.202180 -0.890463
H -0.363793 3.124280 -0.325832
H 0.744600 1.709127 -2.010384
H 1.131922 -2.683780 0.144615
H -1.071273 2.128280 1.846984
H -0.581154 -2.390215 0.397210
H -1.619134 -0.019088 -1.070991
H -0.762822 -0.134058 -2.589805
H 0.464526 -2.429670 1.774649
H 1.584440 -0.389783 0.958483
H 1.385839 -0.652683 -1.491961