18
H9 C6 N1 O2
C -1.208558 0.920041 -0.520436
C 2.108597 0.057357 -1.094253
C -1.914844 -1.107134 0.873541
C 1.268806 -0.477126 0.066554
O 0.162104 -1.178537 -0.534088
N 2.883383 1.080959 -1.006648
C -0.861867 -0.286394 0.206278
C 0.374514 0.466460 0.862678
O -0.037828 1.644951 0.119805
H -2.488160 -1.672920 0.056003
H 2.226159 1.801690 -0.671531
H -2.569360 -0.541500 1.459206
H -1.502324 -1.987593 1.488886
H 2.208560 -0.621672 -1.975205
H -2.078004 1.450411 -0.231687
H 1.945220 -1.182186 0.679105
H 0.599404 0.691168 1.824639
H -1.115816 0.942038 -1.602827