15
H6 C5 N2 O2
N -0.411645 -2.510085 -2.411577
C -0.291543 -0.288685 -0.944283
O 0.048239 0.427849 2.631069
C 0.264176 0.939579 -1.664714
C 0.678919 0.429277 1.328774
C -0.373680 -1.483761 -1.796370
O 1.006655 0.875557 -2.567750
C -0.133322 -0.478705 0.476469
N -1.392473 0.032054 -0.097155
H -0.182991 -1.530856 0.808801
H 0.737245 1.420343 0.933281
H -2.085186 -0.714846 -0.108350
H -0.105139 1.862457 -1.199926
H 1.650155 -0.023212 1.449612
H 0.590609 1.043016 3.162147