21
H12 C8 O1
C -1.406765 0.927285 -0.008716
C -0.269404 0.314195 -0.742846
C -0.679892 0.699512 1.368436
C -1.087764 -0.947730 -0.863147
C -0.378218 -1.650388 0.236301
C 0.314210 -0.237449 0.645343
O -2.249663 -0.203719 -0.281658
C 0.657389 0.989418 -1.807064
C 1.724113 -0.323234 1.142491
H -0.129389 1.619087 1.693665
H -1.467236 -1.450935 -1.728675
H -1.913197 1.858293 -0.164645
H -1.283142 0.254193 2.193233
H 1.120631 1.908229 -1.483982
H 1.752246 -0.709548 2.149495
H 0.346916 -2.337129 -0.195251
H 2.150711 0.712183 1.227871
H -0.015793 1.264780 -2.700483
H 1.369445 0.307903 -2.204866
H 2.377980 -0.871384 0.499975
H -0.933141 -2.123565 1.024508