20
H12 C5 O3
C -0.418729 -1.749438 -0.955221
O -1.410707 0.295223 -1.277490
C 0.629161 0.369979 -0.007219
C 0.300369 1.785695 0.354968
O -1.530546 -0.468805 0.790111
C -0.661038 -0.399811 -0.406117
C 1.471097 -0.364044 1.018628
O -0.054067 2.680839 -0.635758
H -0.473634 1.797921 1.211807
H 0.203723 -1.755036 -1.820588
H 0.937893 -0.489598 1.960660
H 1.227681 2.244482 0.830235
H 0.031946 -2.452704 -0.238239
H 2.391909 0.201198 1.240961
H 1.199839 0.366295 -0.957353
H -2.359910 0.229618 -0.888546
H -1.102992 -0.947559 1.473081
H -1.340230 -2.236251 -1.261553
H -0.803841 2.232755 -1.113804
H 1.762072 -1.340777 0.681442