17
H8 C5 N4
N 0.529683 -1.045712 1.754950
C 0.674298 0.151789 -0.372738
C -0.667859 0.528837 -0.579066
N -1.579942 0.153160 0.201372
C -2.951402 0.496074 0.007189
N 2.527546 -0.808149 0.603799
C 1.280397 -0.579845 0.700690
C 1.859466 0.505868 -1.149593
N 2.897966 -0.133056 -0.507482
H -3.373095 0.969851 0.841605
H -3.510264 -0.464179 -0.237306
H -3.099103 1.121379 -0.899859
H 1.960448 1.081144 -2.045068
H -0.888079 1.112866 -1.487496
H -0.496383 -1.183945 1.645977
H 0.972849 -1.831293 2.305725
H 3.863472 -0.074776 -0.782683