16
H7 C6 N1 O2
C 0.600872 0.016871 0.191716
C -1.475783 0.335337 -1.040805
O 0.698587 0.564746 -2.164615
N -0.578391 -0.241408 1.061410
C 1.783880 0.798034 0.567119
C 0.305536 -1.350445 0.697019
C 0.059620 0.319854 -1.211830
C -1.811152 -0.128283 0.288023
O -2.850865 -0.552355 0.733469
H 2.036549 0.566247 1.668701
H -1.960052 -0.326472 -1.805994
H -1.863421 1.366173 -1.199257
H 1.595043 1.855894 0.564847
H -0.126088 -2.117963 0.058777
H 0.916990 -1.672299 1.606977
H 2.668649 0.566068 -0.015547