16
H7 C6 N3
C -0.182919 1.189922 0.942163
N -0.949647 -1.195286 0.140758
C 0.875012 0.526302 0.042246
N 1.082767 0.346837 -2.366211
C -0.914791 -0.654543 -1.164134
C 0.453457 -0.901658 2.219291
C -0.110086 -0.290610 0.989438
C 0.459037 0.085359 -1.354862
N 0.924467 -1.369538 3.146830
H 0.095079 1.801235 1.796115
H -1.691728 0.029656 -1.549864
H -1.120333 1.612379 0.529516
H 1.909106 0.666007 0.242900
H -1.873654 -1.138713 0.582704
H -0.860570 -1.503919 -1.896297
H 1.904817 0.796569 -2.300576