18
H9 C5 N3 O1
C -1.648782 0.645612 -0.148843
C 0.781275 0.338603 0.120443
O 1.112303 1.448166 -0.283611
C 2.941891 -0.695900 -0.203348
C -2.693250 -0.205328 -0.697449
N 3.746272 -1.725898 -0.125544
N -0.571874 -0.026841 0.461803
C -1.298964 1.003725 1.233796
N 1.621256 -0.710766 0.132557
H -2.475522 -0.662462 -1.683200
H -1.896480 0.589397 2.032320
H -0.835443 1.923120 1.412956
H -2.950641 -1.028500 0.034250
H 1.355277 -1.581619 0.522105
H -3.651666 0.336126 -0.880688
H 3.251584 0.352681 -0.635507
H -1.430418 1.451259 -0.869668
H 4.643163 -1.451371 -0.422356