16
H7 C6 N2 F1
C 1.411681 -1.236892 -0.023716
C -1.123267 1.391300 -2.026640
C 1.493718 -1.547515 1.210232
C -0.299535 0.267177 0.028544
N -1.105624 1.131351 -0.612328
C 0.511987 -0.866658 1.990911
C -0.330357 0.002463 1.476224
F 2.330166 -1.839519 -0.903316
N 0.591770 -0.387487 -0.687240
H -1.476390 0.449324 -2.552387
H 0.433886 -1.090101 3.094283
H 2.173194 -2.235393 1.677338
H -1.069311 0.578550 2.017412
H -0.055657 1.570512 -2.381123
H -1.769983 1.581257 -0.032935
H -1.716283 2.231604 -2.275253