15
H7 C4 N1 O3
N 0.898693 1.613263 -0.567335
C -0.081773 0.679772 -0.376396
C -0.537674 -1.335428 0.696507
O 0.407956 -0.386708 0.325571
C 0.505365 2.858268 -1.410150
O -1.267052 0.663060 -0.844368
C 0.124307 -2.468795 1.434199
O 0.855740 -3.031250 0.423552
H 0.591417 3.715980 -0.732232
H -1.058475 -1.743426 -0.257198
H -0.435259 2.707220 -1.738498
H -1.373399 -0.957374 1.299237
H 0.787595 -2.058222 2.179589
H 1.197485 2.937698 -2.169318
H -0.614919 -3.194068 1.736837