20
H11 C7 N1 O1
C 1.970936 -0.371851 -2.597621
C -1.379393 0.298826 2.143748
C -0.600451 1.382528 1.356935
O 2.027360 -1.084829 -3.615451
C -0.463715 -0.782245 1.544078
C 0.307512 0.318935 0.688668
N 1.174614 -0.630798 -1.568445
C -0.257518 -0.912547 -1.624709
C 0.305755 0.290200 -0.808764
H -2.447113 0.263013 1.801749
H 0.083734 1.244576 -1.271626
H -0.846435 -0.672093 -2.524120
H 2.602998 0.527627 -2.411221
H -1.195436 2.035340 0.668691
H -0.504274 -1.889604 -1.260000
H 1.350059 0.353326 1.005072
H -0.976190 -1.503793 0.921461
H -1.338728 0.344578 3.244176
H 0.016762 2.067175 2.049005
H 0.169534 -1.278378 2.258389