18
H10 C5 N2 O1
C -0.176062 0.733106 -1.682848
N 0.126112 -1.265076 0.981082
C -0.278632 0.123812 0.802802
C -0.806696 -2.253701 0.514073
C 0.757262 1.073257 1.236415
N -0.572416 -0.075282 -0.619753
C 0.036858 -1.428356 -0.482331
O 0.470532 2.420137 0.907256
H 1.744051 0.771215 0.771633
H 0.949035 0.872545 -1.722363
H -0.486896 -3.235609 0.583544
H 0.914221 1.067810 2.300527
H -1.249401 0.435751 1.336151
H -0.665177 1.680986 -1.606335
H 0.865345 -1.817326 -1.061143
H -1.870853 -2.015755 0.441938
H 0.732390 2.618043 -0.056546
H -0.489647 0.294416 -2.644115