22
H13 C8 N1
C 0.130803 -1.677247 2.446307
C -0.994737 -1.312444 1.445378
C 1.607805 0.914088 -2.426126
C -0.891192 -0.440179 0.168112
C 0.392376 0.393058 -1.786988
C 0.400566 1.767072 -2.397355
N 1.192366 0.863837 0.441926
C -1.673376 0.019347 1.448354
C 0.246749 0.218416 -0.316078
H 0.884964 -0.812342 2.574158
H -2.769976 0.133786 1.348107
H -1.656363 -2.125766 1.279750
H -0.109872 -0.404003 -2.369962
H -1.217734 0.925879 1.959669
H 2.354040 1.242592 -1.705489
H -1.600950 -0.899899 -0.599127
H 0.665962 -2.512292 2.065082
H 1.144115 0.603017 1.418524
H -0.270682 -1.856447 3.358909
H 1.952580 0.468348 -3.363522
H -0.143427 1.933896 -3.312559
H 0.355993 2.557284 -1.677087