17
H8 C6 O3
O 1.388303 0.892012 -0.727997
C -0.655889 0.722264 0.812538
C 0.800260 -1.066010 0.509599
C -0.806859 -0.267880 -1.012426
O 0.035525 -1.383539 -0.624308
C 1.913945 -0.164855 0.014800
C -0.059044 0.995875 -0.571373
C -1.814296 0.027681 0.078613
O 0.110468 -0.347549 1.496281
H 2.533612 0.244874 0.932695
H -1.058780 -0.427557 -2.016123
H -0.309617 1.901479 -1.043569
H -2.313737 -0.782419 0.496000
H -0.795900 1.505163 1.580710
H -2.582831 0.832459 -0.297733
H 2.578263 -0.666118 -0.597395
H 1.036562 -2.015877 0.969726