25
H16 C8 O1
C 0.821704 1.659037 2.849737
C 0.215443 -0.432979 -0.339266
C -0.173462 0.429751 0.788809
C -0.941688 1.714115 0.293077
C -0.895974 -1.698755 -2.438139
C -0.858590 -1.402816 -0.989327
C 0.365346 -2.297070 -2.984174
O -1.705913 -2.008405 -0.280619
C 1.094686 0.981520 1.544031
H -1.808137 -2.197795 -2.692803
H 1.791018 0.161074 1.684906
H 1.144449 -0.840931 -0.337373
H 1.643986 1.612521 0.827921
H 0.187133 2.532744 2.860478
H -1.326400 2.330573 1.122199
H -0.894589 0.028857 1.450990
H 0.339129 0.945373 3.550705
H 0.387689 -2.867291 -3.788910
H 1.210389 -2.278404 -2.358625
H 0.065099 -1.441373 1.134436
H -0.305763 2.443323 -0.358849
H 0.396509 0.230916 -1.271216
H -0.720856 -0.931717 -3.251792
H 1.786630 1.943259 3.317130
H -1.817808 1.384508 -0.333298