18
H9 C6 N1 O2
O 2.996673 -1.084432 -0.556855
C -1.227823 2.005482 1.304804
C 1.881938 -1.249749 -0.967493
C 1.232129 -2.331225 -1.474906
C 0.484607 -0.486028 -0.810227
N -2.364781 2.651987 1.059682
C -0.123861 -2.000223 -0.868690
O -0.931695 1.119458 0.258745
C 0.293912 0.435070 0.339424
H -1.182984 1.430545 2.256867
H 0.324337 -0.175845 1.267495
H 1.436455 -3.011262 -2.275536
H -1.000826 -2.188459 -1.464894
H -0.386861 2.714767 1.381836
H 1.112658 1.226840 0.327657
H -0.230079 -2.363939 0.168490
H 0.220564 0.024643 -1.781398
H -2.534366 3.282366 1.834985