18
H9 C7 N1 O1
C -0.479638 -1.609355 -0.011907
C 0.746433 -1.042550 -0.766788
O 0.070337 -0.954469 1.159948
C -0.577116 1.050687 0.043243
C 0.611840 0.065113 0.285683
C -1.727718 0.356735 -0.384411
C 1.781786 0.771472 0.858305
C -1.688766 -0.997687 -0.441169
N -0.453582 2.287211 0.146159
H 0.614312 -0.753400 -1.901650
H 1.659571 -1.560120 -0.638176
H -0.454533 -2.645988 0.124387
H 2.234994 1.449498 0.042486
H 2.658029 0.051354 1.111826
H -2.669914 0.935246 -0.618664
H 1.593606 1.386537 1.691476
H -2.555804 -1.601540 -0.722442
H -1.363822 2.811269 0.021680