15
H6 C4 N4 O1
O -1.069195 0.136140 3.077057
C 0.859570 0.922163 -1.393724
N -0.000267 1.114672 2.964185
C -0.998136 -0.682211 -1.509813
C 0.228909 -0.361230 -0.893099
N -0.964575 -0.700098 2.041581
N 0.621368 0.837553 1.894589
N 0.679963 -0.957250 0.244373
C 0.067739 -0.348307 1.339574
H 1.200668 0.666877 -2.444094
H 0.451529 -1.992339 0.311903
H 1.627718 1.301875 -0.736179
H -0.977162 -0.889469 -2.498218
H 0.091157 1.689487 -1.493323
H -1.819293 -0.737877 -0.904829