18
H9 C7 N1 O1
C -0.074605 0.842691 1.018553
C 0.981776 1.965831 1.032029
C -1.029620 -2.014934 -1.208897
C 3.054533 1.479148 -0.559408
C -0.794204 -1.262783 0.120790
O -1.043615 1.053121 1.738230
C -2.140591 -1.247033 -0.579300
C 2.131375 1.685443 0.180883
N 0.060988 -0.142737 0.164026
H 3.897629 1.327459 -1.238066
H -1.105961 -3.080283 -1.113233
H -0.550328 -1.599270 -2.061586
H -0.729384 -1.880514 1.047532
H -3.012392 -1.711002 -0.120301
H 0.588511 2.912151 0.823644
H 1.242775 2.022620 2.131120
H -2.345802 -0.218008 -1.012592
H 0.868879 -0.131901 -0.363440