21
H12 C9
C -1.497084 0.016602 0.202240
C 0.097443 -1.495660 -0.195709
C 0.508386 0.963908 -0.576573
C -0.332414 -0.702704 1.046261
C 1.511820 -1.991689 -0.325911
C -0.440501 -0.220415 -0.939680
C 0.378508 0.726746 0.975990
C -0.986089 1.412187 0.797903
C -0.468621 2.139279 -0.458649
H -0.614336 -2.302615 -0.312132
H 0.103587 3.099813 -0.073081
H 1.436399 0.993591 -1.122055
H -2.514866 -0.331461 0.192562
H -1.105607 2.457834 -1.278771
H -0.519521 -1.106167 2.054183
H 1.750087 -2.771833 0.341701
H 2.258363 -1.199278 -0.188429
H -0.757189 -0.258864 -2.001107
H -1.639361 1.913799 1.588194
H 1.675504 -2.356776 -1.419697
H 1.155485 1.013680 1.692745