21
H12 C7 N2
C 1.286885 0.525388 -0.244254
N -2.788600 1.369596 -2.749533
C -0.892985 1.373502 -0.965960
C -1.090692 0.368284 0.143283
C 0.496146 1.003978 -1.516610
C 0.563721 -0.748965 1.731160
N 0.208762 0.292857 0.755154
C 0.420421 -2.162400 1.264830
C -1.925951 1.402681 -1.989138
H 1.808388 -0.404187 -0.426527
H 0.784755 -2.310500 0.216954
H 1.529069 -0.518490 2.132118
H 1.034699 -2.834139 1.873412
H 1.004283 1.827321 -1.979267
H -1.403001 -0.662893 -0.239274
H -0.813915 2.394804 -0.539260
H -0.631302 -2.517605 1.240934
H -0.140261 -0.564904 2.576286
H 0.467705 0.213407 -2.251088
H 1.955306 1.309110 0.082519
H -1.873452 0.643129 0.884287