20
H11 C7 N1 O1
C 1.754000 0.995384 -0.812292
C -0.664085 0.612792 -0.051296
C -0.839878 1.765718 0.795210
C 0.340168 0.469219 -1.189075
C -0.555287 -0.912784 0.213778
C 0.249175 -1.082965 -1.120697
C -0.433979 -1.620343 1.467597
N -1.811595 -0.305413 -0.276934
O -1.787548 1.972190 1.475926
H -0.825574 -1.089881 2.297179
H 2.209620 0.290815 -0.101830
H -2.363345 -0.029826 0.592308
H -0.072515 2.573234 0.624010
H 1.169428 -1.575655 -1.035652
H 2.463967 1.047549 -1.602789
H 0.661133 -1.785184 1.727650
H 1.767121 1.938367 -0.321306
H -0.400789 -1.602654 -1.906413
H -0.870628 -2.575905 1.363437
H 0.010626 0.915325 -2.138797