17
H10 C6 O1
C -1.525566 0.465222 -0.723483
C -0.202080 1.242911 -0.950622
C -0.735709 1.007692 0.445899
C 1.002472 0.277153 -0.657180
C 0.097171 -1.377035 1.218124
C 0.445215 0.013573 0.800392
O 1.085629 -0.781598 -1.543690
H -0.524640 -1.913555 0.559368
H 1.077431 0.527102 1.570763
H 1.073993 -1.954342 1.423379
H -0.415510 -1.385432 2.219293
H 1.957745 0.843541 -0.587177
H 1.918378 -1.263164 -1.350118
H -1.257070 1.710131 1.112912
H -0.121949 2.129554 -1.587419
H -1.527373 -0.577807 -0.951953
H -2.348144 1.036030 -0.998483