18
H10 C6 O2
O -0.629707 0.322969 -1.170478
C -1.242765 -0.682286 0.670768
C -1.520237 -0.750269 -0.827195
O 1.450834 -1.599236 -0.047440
C 2.027271 -0.605302 -0.924323
C 1.280326 -0.199626 0.262095
C -0.205143 1.752818 0.781714
C -0.125759 0.364101 0.206354
H -1.273718 2.111352 0.682492
H 0.034124 1.792933 1.838166
H 1.573398 -0.512715 -1.871848
H 0.409395 2.456913 0.211889
H -1.284026 -1.728996 -1.335495
H -2.553337 -0.534158 -1.089513
H 3.133873 -0.636489 -0.908332
H -2.041179 -0.183948 1.269212
H 1.839061 0.207871 1.121032
H -0.872440 -1.575906 1.130900