18
H9 C6 N1 O2
C 1.321326 -0.600025 -0.728995
C 1.178014 -0.129981 0.960703
C -0.860175 0.879760 -0.979230
C 0.277751 -0.050699 -1.478365
C -0.362164 -0.161331 1.359801
O 1.371659 0.654631 -1.973488
N -1.361802 -0.924627 0.760034
C -1.212157 0.501717 0.483233
O 2.392188 -0.019301 -0.488956
H 0.934764 -1.803660 -0.539583
H -0.523719 -0.101184 2.471256
H -2.035227 1.134256 0.881272
H 1.712609 -0.944710 1.495542
H -2.086051 -1.167952 1.325805
H -0.439950 1.835926 -1.011167
H -1.689821 0.882985 -1.648334
H 1.519768 0.766638 1.366417
H -0.137036 -0.752464 -2.255970