14
H5 C5 N1 O3
O -1.277154 0.052721 -0.910395
C 0.648174 -1.000534 -0.257668
O 0.248226 -1.590579 0.950266
C -0.974660 0.562403 0.377687
C 0.252042 -0.209190 0.829739
C 0.760206 1.050445 1.420528
O -0.121600 1.823799 0.542702
C -0.342136 -0.750638 -1.416715
N -0.257420 -1.183118 -2.584303
H -1.135971 -0.851483 -3.091156
H -1.827547 0.647415 0.924423
H 1.822934 1.272968 1.255557
H 1.710296 -1.112521 -0.541844
H 0.494591 1.288298 2.501167