16
H7 C7 N1 O1
O -1.681214 -0.104231 1.230052
C -1.125815 0.810867 0.179212
C 0.243976 1.056474 0.827176
C 1.517974 0.219198 -1.657832
C -0.799633 -0.972736 0.677812
C 0.668877 -0.432489 0.739821
C -0.854951 -0.376821 -0.734214
C 0.690419 -0.624089 -0.825535
N 2.234795 0.896442 -2.239299
H 0.918287 -1.726682 -1.064900
H 0.135531 1.410829 1.856209
H 1.407763 -0.854555 1.363677
H -1.520707 -0.702825 -1.536615
H -1.030799 -2.023621 0.998820
H 0.914637 1.770836 0.312417
H -1.719141 1.653385 -0.126806