10
H1 C2 N5 O2
O -1.840075 -0.320970 -1.325988
C 0.112582 0.246710 -1.068158
N 1.432412 0.687010 -1.043832
N -0.455255 -0.239977 0.174942
C 0.287408 -0.241512 1.333485
O 1.291923 0.290361 1.797479
N -1.665677 -0.504607 0.069699
N -0.820157 0.085203 -1.971509
N 1.948632 0.785453 -0.078307
H -0.291795 -0.787659 2.112180