16
H7 C7 N1 O1
O -0.504260 -1.652515 0.960153
C -1.662125 0.771300 0.349332
C 0.946873 -0.286453 -2.804214
C 0.812246 -0.261229 -1.629492
C 0.692385 -0.295681 -0.133714
C -0.591631 -0.331657 0.617472
C 0.379497 0.787623 0.833732
C 0.909994 -1.591308 0.560006
N -0.545125 1.809556 0.304252
H -2.322333 0.995718 1.191690
H 1.005077 1.029032 1.728826
H 1.524198 -1.487503 1.523516
H 1.020376 -0.274789 -3.860387
H -2.202015 0.628003 -0.576287
H 1.177083 -2.408957 0.069168
H -0.640240 2.568909 0.865956