17
H8 C7 O2
O 1.407160 -1.551186 0.531811
C -0.135218 0.486688 0.761362
C -0.711850 -0.614395 -0.205769
C 0.120854 -1.828789 0.190932
O -2.204850 2.141603 -0.882004
C -1.325185 1.591370 -0.628051
C 0.087796 1.339289 -0.486436
C 1.028419 -0.294361 1.426057
C 0.061114 0.085304 -1.421868
H -0.717828 0.920522 1.537215
H 1.949505 0.265547 1.360991
H 1.050047 -0.458209 -1.530991
H 0.873172 -0.664631 2.402286
H -1.762575 -0.950845 -0.242338
H -0.180168 -2.828074 0.189436
H -0.360860 0.163111 -2.418946
H 0.820442 2.197064 -0.583679