21
H12 C8 O1
C 0.023639 0.143277 -2.394414
C -1.237537 -1.245739 -0.476413
C 0.541821 0.429539 2.366550
C 0.339362 -0.616975 1.315620
C 0.863742 -0.232794 -0.162887
C -0.160045 -0.633644 -1.075263
C 0.308068 1.527865 -1.592318
O 1.022889 1.166419 -0.381906
C -1.188231 -1.022567 0.999887
H 0.994200 2.178762 -2.184613
H 1.860413 -0.675477 -0.367386
H -1.807096 -0.150227 1.344794
H -0.902241 0.211896 -3.006940
H -0.596238 2.060842 -1.400729
H 0.852923 -1.583467 1.587478
H -2.058308 -1.650241 -0.925922
H 0.176900 1.356676 1.939527
H 0.834160 -0.176631 -2.881559
H -1.495897 -1.782950 1.493616
H 0.048248 0.118513 3.264187
H 1.579194 0.576914 2.538645