21
H12 C6 N2 O1
C 0.079458 -0.062943 -0.077501
C -2.223958 0.208488 -1.146825
C -1.727281 -1.838003 0.246978
N 0.315516 0.131375 1.114542
C 1.518045 0.991231 1.585456
C 2.583611 1.509444 0.638125
C -1.194426 -0.658511 -0.532657
N -0.945093 -2.000455 -0.998953
O 0.813742 0.341600 -1.134121
H -2.744585 -2.149115 0.204144
H 3.360059 1.907563 1.153228
H 2.971467 0.641932 0.064668
H 1.085761 1.774465 2.155774
H -2.765591 0.862040 -0.433823
H -1.705671 0.885094 -1.849339
H 0.030674 -2.334055 -0.790876
H 2.000461 0.262132 2.332315
H 0.543440 -0.145168 -1.933756
H -2.929475 -0.372068 -1.716319
H -1.198025 -2.094748 1.174185
H 2.131868 2.139699 -0.055221