16
H7 C6 N1 O2
O -0.774853 1.119933 2.416785
C 1.311670 -0.338302 -0.343601
C 1.181370 -1.141656 0.720787
C -0.826775 0.344917 1.456517
C -0.325246 1.045858 -2.062948
C -0.085744 -1.030521 1.587059
N -1.030231 -0.072172 -0.350247
C 0.059449 0.248237 -0.864314
O -1.798007 0.811252 0.533533
H 0.098923 -1.159066 2.647627
H -0.794168 -1.866205 1.305995
H -1.372291 1.358886 -2.085148
H 1.959992 -1.733818 1.070539
H 0.285448 2.066988 -2.076795
H 2.166634 -0.170226 -0.973247
H -0.056221 0.515914 -2.982582