17
H8 C7 O2
C 0.560480 0.526116 1.448062
C 1.753586 -0.775917 0.484555
O -0.084221 1.296787 2.146191
C 0.275811 -0.342038 0.252893
C -0.767915 -1.327705 0.452152
C 0.156231 0.497543 -1.009080
C -1.534674 -2.134785 0.682030
C -1.131600 1.419459 -1.094738
O 1.785422 0.143902 1.661519
H 0.226955 -0.128697 -1.917285
H 1.844262 -1.810670 0.810500
H 2.484718 -0.639230 -0.237303
H -1.973207 0.748184 -1.157632
H -1.103589 2.074043 -1.961565
H 1.027701 1.218066 -1.182668
H -1.214162 2.059480 -0.246714
H -2.305796 -2.824559 0.869067