14
H6 C5 O3
O 1.354453 0.436547 -0.780572
C -0.911459 0.625274 -0.293824
C 0.159492 -1.505194 0.324220
C 0.169840 -0.339141 -0.724624
C -0.324146 1.725398 0.049574
O -1.065141 -2.053964 0.537315
C 1.132169 1.686244 -0.261219
O 1.981723 2.489784 -0.147325
H 0.034291 -0.803602 -1.702337
H 0.839691 -2.282143 -0.061108
H -0.732031 2.633663 0.601794
H -1.379568 -1.863327 1.388385
H 0.660884 -1.107311 1.288865
H -1.920181 0.357769 -0.219137