21
H12 C6 N2 O1
C 0.467565 -2.208092 -0.270002
C 1.809198 -0.640635 -1.758997
O -1.236583 1.417374 1.326257
C 0.575815 0.322667 0.235170
N 2.614728 -0.865383 -0.557281
C -2.524392 1.906045 1.161215
C -0.879023 0.379884 0.450537
N 1.360822 1.278361 0.539799
C 1.165445 -0.896013 -0.483702
H 0.859828 2.059227 1.008052
H -1.311289 -0.568913 0.943396
H 2.870362 -0.033407 -0.206388
H -2.702881 2.535799 2.058260
H 0.403389 -2.468809 0.794573
H 1.756475 0.376598 -2.210874
H -0.582388 -2.239314 -0.595030
H -2.616235 2.516769 0.261365
H -3.312847 1.181305 1.161219
H -1.478009 0.403092 -0.504738
H 1.777914 -1.418322 -2.565129
H 0.982094 -3.038233 -0.787721