21
H12 C8 O1
C 0.198110 1.168378 -0.973181
O -1.049024 1.791882 1.100693
C 0.279039 1.736424 1.150486
C -0.517204 -1.775714 0.251379
C 0.154304 0.394961 0.480664
C 0.808046 -1.061650 0.657587
C 0.708205 2.394419 -0.157869
C -0.751227 -2.068016 -1.230075
C -0.877643 -0.463489 0.828469
H -0.293597 -2.996556 -1.508218
H -1.836945 -2.124286 -1.408148
H -0.652976 1.290186 -1.531573
H 0.701793 1.921250 2.092826
H -0.334831 -1.251482 -1.840732
H 1.021147 0.742702 -1.559923
H -0.880857 -2.627219 0.880579
H 1.604589 -1.269620 -0.081021
H 1.161806 -1.313098 1.650222
H 1.763305 2.576897 -0.247164
H 0.171657 3.380369 -0.358497
H -1.377678 -0.446304 1.803518