16
H7 C5 N3 O1
C 0.709481 -0.499983 0.410284
C -0.157202 -0.753788 1.478769
C 1.880557 0.237358 0.882108
N -0.903858 -0.982669 2.207492
C -0.049940 1.621429 -0.725748
C -1.220638 -0.476157 -1.180115
O -0.712525 2.254635 -1.350492
N 0.073760 0.187109 -0.770768
N 2.754711 0.805781 1.347636
H 0.620532 2.013248 0.064189
H -1.742478 0.015565 -1.933894
H 1.188212 -1.399982 -0.004483
H -0.093475 -0.980354 3.012358
H -1.081098 -1.524883 -1.516203
H -1.936137 -0.582004 -0.257029
H 0.670101 0.064724 -1.664092