18
H9 C7 N1 O1
O 1.408744 0.925236 1.933914
C -0.905229 0.434011 1.334355
C 2.109179 -0.040920 -0.749237
N -3.393846 -1.856016 0.342902
C 0.569065 0.604197 1.108818
C -0.553390 -0.041753 -0.915806
C 0.806234 0.544099 -0.464161
C -1.294803 -0.509772 0.157649
C -2.467068 -1.230293 0.301687
H -0.491513 -0.601398 -1.879064
H 2.220655 -1.088611 -0.444958
H -0.112889 -1.596025 -0.155781
H 2.235481 0.001694 -1.862865
H 2.930866 0.504642 -0.253917
H -1.190302 0.023823 2.278988
H 0.852220 1.618528 -0.725459
H -1.443216 1.464946 1.251661
H -1.280172 0.843604 -1.258711