25
H16 C8 O1
C -3.393682 -0.601379 -0.421585
C -0.801573 -0.310800 -0.286461
C -2.224640 -0.239817 0.421813
C 0.263364 0.413033 0.534587
C -0.461860 -1.721103 -0.615463
O 0.326772 -2.123453 -1.402021
C 1.643147 0.598279 -0.124962
C 2.649920 -0.473118 0.200200
C 2.224216 1.998015 0.176459
H 3.173563 2.141120 -0.295823
H -0.926960 0.222072 -1.239811
H -0.161840 1.399203 0.732749
H -2.200524 -0.784454 1.389190
H -3.409520 -0.008476 -1.364225
H 2.809193 -0.498514 1.272701
H -3.333916 -1.688729 -0.715235
H 3.633783 -0.291133 -0.264941
H 2.270455 2.126387 1.249076
H 0.384360 -0.078001 1.532281
H 1.545826 0.580435 -1.245726
H 1.533871 2.775882 -0.202050
H -4.319705 -0.417462 0.068259
H -1.120197 -2.437404 -0.106514
H 2.270315 -1.432449 -0.094831
H -2.374409 0.851879 0.802347