16
H7 C7 N1 O1
O -1.053297 -0.391533 1.537452
C -0.736430 -1.595430 -0.571970
C -0.687405 -0.356098 0.180926
C 0.561490 0.553865 -0.118576
N 2.204790 -0.079890 -2.010809
C 1.235403 1.200102 1.093438
C -0.826884 0.964059 -0.541582
C -0.936985 -2.669755 -1.088718
C 1.406876 0.216250 -1.158750
H -1.922653 -0.743094 1.562131
H -1.000104 -3.584435 -1.631553
H -1.324358 1.695055 0.071716
H -1.052469 0.960463 -1.585631
H 1.728258 2.023236 0.820276
H 0.481236 1.397393 1.904137
H 1.922538 0.409792 1.537510