19
H10 C6 O3
C -0.964350 0.281755 -1.378184
C -0.602429 0.081360 1.076664
O 1.571915 -1.662363 -0.137913
O 1.743604 0.833789 1.913490
C 0.301331 0.850554 2.016154
C -0.065939 0.190713 -0.330060
C 0.772303 -1.141123 -0.806480
C -0.555878 -0.467926 -2.577297
O 0.586917 -1.365229 -2.056308
H 0.407414 -0.865454 2.016546
H 0.149160 1.997366 1.849771
H -1.917549 0.836266 -1.432663
H -1.020926 -0.936168 1.210341
H -1.564635 0.603671 1.168073
H 1.951329 -0.008039 1.208679
H 0.675452 1.011343 -0.365740
H -1.316826 -1.120595 -3.060385
H -0.092456 0.142488 -3.396902
H -0.058474 0.737574 3.082229