18
H9 C7 N1 O1
O -1.856671 2.801324 -0.620544
C -1.426415 1.713528 -0.223478
N -2.163982 -1.522769 1.259696
C 0.448943 -0.088900 -0.915598
C 1.337228 0.199549 0.274712
C -0.808531 0.787191 -1.212634
C -1.608066 -1.132579 0.344782
C -0.948377 -0.684289 -0.856860
C 1.483720 -0.897885 1.351256
H 2.312424 0.465145 -0.114007
H 0.933015 1.123378 0.748937
H 1.837789 -1.799149 0.889147
H 0.962545 -0.474804 -1.753980
H -1.167418 -1.348901 -1.701006
H -1.223318 1.520067 0.840959
H 0.526724 -1.057447 1.876446
H 2.268937 -0.657692 2.075024
H -0.908546 1.054217 -2.262889