15
H7 C5 N3
C 0.303118 1.603038 0.163515
C 0.184273 0.173741 0.736532
N -0.196575 1.457319 -1.195261
C -0.448451 -0.596065 -0.457452
N -0.567735 0.221802 -1.465476
C -0.789300 -1.971059 -0.582332
C 1.347914 -0.121106 1.559353
N 2.281371 -0.049278 2.349534
H -0.243865 2.210696 -1.864934
H -1.887247 -2.061816 -0.665537
H -0.341685 -2.473712 -1.420853
H -0.194151 2.341523 0.787538
H -0.385912 -0.148230 1.600809
H 1.459159 1.925634 0.125299
H -0.520898 -2.512486 0.329254