21
H12 C8 O1
O 1.397141 1.133616 2.565292
C 0.475505 0.601260 -0.688903
C 1.660708 0.517142 1.633524
C -1.944684 0.005996 -1.783579
C 0.778986 -0.234828 0.642799
C 1.263549 -1.686273 0.660299
C -0.403703 1.553984 0.200570
C -0.777916 -0.329142 -0.854213
C -0.743868 0.092586 0.679477
H 0.039583 2.152318 0.942561
H -2.784578 -0.548023 -1.551244
H -2.247852 1.085384 -1.666190
H -1.636591 -0.060553 -2.858534
H -1.456254 -0.165059 1.475536
H 1.181544 0.856659 -1.457267
H -0.552432 -1.375397 -1.034994
H 2.225455 -1.785504 0.105409
H 0.548133 -2.399483 0.188728
H -1.210570 2.101945 -0.319353
H 1.446463 -1.942157 1.731804
H 2.741380 0.425486 1.388279