16
H7 C6 N3
C -0.724687 -1.234225 -0.881187
C 1.407499 -0.531769 0.320153
N -1.757562 0.883082 -0.377802
C -1.850007 -0.241710 -1.292850
C 1.883607 0.442211 1.220309
C -0.581107 0.807976 0.188217
N -0.165683 1.784425 1.114171
C 1.072502 1.565273 1.569991
N 0.173569 -0.384083 -0.175557
H -1.084981 -2.045426 -0.236527
H 1.934412 -1.374608 -0.008109
H -0.213863 -1.708172 -1.766173
H 2.932159 0.324700 1.679141
H 1.517718 2.323754 2.260413
H -2.855712 -0.672630 -1.256856
H -1.687885 0.061172 -2.357339