20
H11 C7 N1 O1
C -0.391711 0.358295 -0.351519
C -0.921309 0.110281 2.055577
C 1.169674 -1.599931 -0.813812
O 0.534638 1.430878 -2.518157
C 0.276809 1.311785 -1.276903
C 0.304726 1.065022 1.961749
C -0.997288 0.241602 -1.394124
C -0.193651 -1.085747 -0.603262
N -0.765754 0.951897 0.872233
H 0.280794 1.995123 2.461300
H 1.822028 -1.440214 0.220793
H -1.761746 0.365939 2.653423
H -0.904514 -0.726753 -2.139714
H -2.029875 0.738094 -1.585317
H 1.203760 0.590916 1.759500
H -0.708477 -0.943863 2.046734
H 0.834900 2.122414 -0.706667
H -0.750731 -1.793496 -0.125151
H 1.295552 -2.685491 -0.989181
H 1.702188 -1.006736 -1.527478