19
H10 C6 N2 O1
C -0.955183 -1.444486 -1.375344
C 0.290344 -0.694624 0.720270
C -2.121149 -0.600675 -0.323065
C -0.006667 0.868880 -0.745048
N -0.774204 -2.312812 -2.206371
C 2.004028 1.319038 0.772873
C 1.221354 0.330529 -0.026916
O -2.820402 -1.227360 0.532207
N -0.711244 -0.360795 -0.343180
H -2.744231 0.168359 -0.904823
H 2.870339 0.723580 1.292466
H -0.023136 -0.295758 1.692270
H -2.292876 -1.163174 1.267162
H 2.500806 2.060074 0.135066
H 1.882092 -0.236338 -0.752329
H 0.602347 -1.739350 0.752790
H -0.430108 1.716121 -0.231953
H 0.074963 1.046778 -1.834251
H 1.432937 1.842027 1.578191