19
H10 C7 O2
C -0.608212 0.012856 -0.006105
C -0.637899 1.754506 2.029144
C 0.755002 -0.711243 -0.095044
O -2.068215 0.217395 -1.907766
C 1.015338 -1.754432 0.964268
O 0.205952 -2.902921 0.749599
C -0.616876 0.950484 1.113405
C -1.077243 0.646660 -1.309487
C -0.214193 1.742009 -1.825414
H 0.870710 -1.277062 1.966268
H 0.053068 2.530607 -1.093350
H 1.537531 0.056624 -0.074552
H -1.315280 -0.832537 0.228714
H -0.680256 2.432827 2.774149
H 2.052235 -2.028322 0.945501
H -0.804406 2.304629 -2.617549
H 0.037656 -3.308315 1.496864
H 0.706105 1.381547 -2.262225
H 0.789016 -1.215311 -1.076415