18
H9 C6 N1 O2
C 1.386836 -0.361651 -0.562206
N 0.071539 -0.333816 -1.298241
C -0.100033 0.793893 0.706243
C 1.307708 1.028740 0.063855
C -1.835837 -1.246830 0.364956
O -2.657263 -1.490804 -0.506456
C 0.757624 -1.226239 0.258972
O -1.106180 1.810969 0.337124
C -0.527436 -0.573943 0.065203
H -0.866236 2.615692 0.712448
H 1.294191 1.813521 -0.603753
H 2.180581 1.214279 0.823593
H -1.107761 0.733443 -1.065573
H -1.959262 -1.454486 1.418723
H 0.044902 -1.219600 -1.864548
H 0.911205 -2.262544 0.502168
H -0.074938 0.772995 1.773568
H 2.280375 -0.613652 -1.126106