21
H12 C8 O1
C -0.119877 0.062239 1.286056
C -0.541000 0.702400 0.205011
O -2.928088 0.565049 -0.505375
C 2.046762 -1.583284 -1.098522
C -1.786973 1.414024 -0.085557
C 0.432471 0.388119 -0.967655
C 1.052973 -0.774229 1.114709
C 1.566040 -0.322638 -0.310738
C -2.975490 1.233387 0.772131
H 0.833151 1.333388 -1.474651
H 2.426259 -1.269305 -2.076610
H -3.663147 2.043787 0.797731
H 1.220231 -2.281533 -1.343771
H -0.102315 -0.159277 -1.741065
H -1.691030 2.336580 -0.669607
H 2.392622 0.349436 -0.216951
H -0.632586 0.155481 2.252637
H 2.820564 -2.178352 -0.571122
H -2.960765 0.538573 1.617484
H 1.859139 -0.708640 1.874425
H 0.751043 -1.845196 1.141449