20
H12 C7 O1
C 1.317852 0.576962 -0.750759
C -2.327836 -0.521106 -0.025670
C -2.725136 0.689579 -0.904199
C -1.003730 0.171983 0.236912
O -1.230609 1.062853 -0.890851
C 2.937374 -0.295556 0.911691
C 0.397788 -0.531849 0.275829
C 1.738229 0.182971 0.168372
H 0.408605 -0.967925 1.372864
H 1.711900 0.183021 -1.733143
H 2.916887 0.154264 1.933016
H 1.341312 1.555047 -0.354997
H 0.257360 -1.434953 -0.367084
H 3.793050 0.020274 0.297504
H -2.995059 0.456414 -1.949840
H -3.257051 1.450287 -0.518776
H -2.155942 -1.430290 -0.638768
H 2.952292 -1.394582 1.009731
H -2.992155 -0.753589 0.805348
H -1.085110 0.826193 1.122775