17
H8 C7 O2
O -0.456388 -0.272550 -3.245802
C 0.598618 -1.284282 -0.615111
C -1.120557 0.209323 0.416930
C 0.890424 0.547793 2.175776
C -0.500464 -0.283827 -0.871067
C 0.304257 0.611883 0.917819
C -1.058118 -0.137015 -2.177740
O 0.581347 1.899185 1.533832
C 0.855268 0.166451 -0.395862
H 0.313287 0.358702 3.120074
H -2.160347 0.187830 -2.250521
H 1.579012 0.731013 -1.065888
H 0.975172 -1.747999 -1.567796
H 0.554671 -1.944290 0.251456
H -1.698309 1.095423 0.329779
H 1.966590 0.391756 2.352086
H -1.624467 -0.529414 1.092044