21
H12 C8 O1
C 1.702510 -1.076863 1.025236
C 0.430605 0.981573 -1.452896
C -1.405497 -0.779789 -0.783303
C 0.681158 -0.153582 0.351319
C 0.045729 -0.469967 -1.009255
C -0.514686 0.431024 1.192685
C -1.834441 0.058812 0.462684
C 0.928662 1.350021 0.032339
O -0.156410 1.826188 0.916242
H 2.130942 -0.610441 1.917334
H 1.271029 -2.002207 1.252261
H -2.290196 0.968551 0.108482
H 2.514101 -1.200939 0.303761
H -2.569813 -0.403586 1.107089
H -0.440535 1.602391 -1.842974
H 0.563763 -1.246811 -1.564718
H -0.590301 0.232478 2.286306
H 1.878078 1.879367 0.095741
H -1.524013 -1.824751 -0.501793
H 1.194810 1.084853 -2.221495
H -2.015513 -0.646315 -1.675030