20
H11 C7 N1 O1
C 3.012308 0.974884 -0.762629
O 2.418950 -0.689161 0.856566
C -2.596775 0.385808 1.370029
C 2.063421 0.051141 -0.043186
C 0.668325 0.010128 -0.509805
N -3.300024 0.752267 2.278849
C -0.272293 0.320929 0.668019
C -1.999741 -1.454087 -0.094818
C -1.841340 0.028816 0.263450
H -2.091499 0.635680 -0.613369
H 0.436585 0.709168 -1.341180
H 2.650213 2.028233 -0.658488
H -1.539518 -1.750777 -1.005379
H 2.963392 0.783970 -1.836071
H -0.225083 1.361048 0.939327
H -1.723261 -2.089574 0.709166
H 0.491740 -0.947816 -1.022356
H -0.036404 -0.315370 1.441448
H -3.085743 -1.635632 -0.254377
H 4.006732 0.840371 -0.385201