17
H8 C7 N2
C 1.588597 0.442939 -1.200510
C -0.546181 -1.147764 1.445578
C 0.636652 -1.363993 0.464309
C 0.128305 2.151875 -1.548815
C 0.648297 -0.114769 -0.388245
C -0.583163 0.609845 -0.098642
N 1.295567 1.577684 -1.832246
C -1.425084 -0.138476 0.747550
N -0.837863 1.703639 -0.761053
H 2.501899 -0.049951 -1.444270
H -0.973485 -2.118598 1.768828
H 1.574202 -1.531370 1.005614
H -0.006592 3.143222 -2.070688
H 0.468774 -2.251126 -0.186552
H -2.291711 -0.705843 0.238922
H -2.023351 0.508408 1.474289
H -0.154862 -0.715706 2.385931