20
H12 C7 O1
C -1.316423 -1.512479 0.098869
C -0.346890 -1.242023 -1.085836
O -0.411948 -0.026676 2.003715
C -0.226015 -1.116361 1.138855
C 0.849973 1.734352 -1.088019
C -0.341926 1.138135 1.155747
C 0.830376 0.834702 0.164755
C 0.747354 -0.695292 0.031443
H 0.946975 2.734276 -0.858216
H 1.709833 1.462129 -1.715455
H 0.027941 -2.167728 -1.533440
H 1.745002 1.064061 0.727817
H -0.017775 1.609805 -1.713235
H 0.145700 -1.960557 1.752852
H 1.676939 -1.193694 -0.125075
H -1.675061 -2.506657 0.254005
H -1.290241 1.319368 0.621934
H -2.170330 -0.851206 0.162438
H -0.190654 2.016140 1.785322
H -0.692782 -0.640307 -1.778482