19
H10 C6 N2 O1
C 0.028282 -0.985784 0.264364
C -1.110498 -1.784086 0.738285
C 1.841862 2.068092 0.220701
C -1.355477 -1.204913 -0.634862
O 1.264437 -1.545892 0.150300
C 0.052207 0.436329 0.256723
N 0.786530 1.397836 1.023243
N -2.062259 0.046992 -0.522889
C -0.883301 0.794878 -0.779993
H -0.958262 -2.868024 0.727296
H 1.414451 2.585591 -0.580644
H 1.196544 0.890431 1.828311
H -1.398524 -1.839631 -1.481327
H -2.683339 0.189092 -1.418885
H 2.341009 2.738363 0.926594
H 1.332124 -2.139090 -0.567449
H -0.588301 1.297230 -1.611342
H 2.548435 1.338468 -0.129642
H -1.765889 -1.415893 1.591222