21
H12 C8 O1
C 0.073845 -0.729253 -1.598581
C 1.287798 1.856176 0.807637
C -0.081373 -0.108285 0.895525
O 1.299556 -0.729615 1.268256
C 1.106309 0.473677 0.853225
C -0.680808 -1.546973 -2.670487
C 0.695757 1.451706 2.095824
C -0.737880 -0.919135 -0.217430
C -0.619747 0.679779 2.091192
H -0.147304 -1.462557 -3.559105
H -1.678606 -1.122169 -2.761858
H 0.193996 0.342068 -1.852885
H -1.485476 1.301016 1.812923
H 0.680968 2.500502 0.097395
H -0.737612 -2.623517 -2.410766
H 1.052104 -1.162775 -1.412398
H -0.846664 -1.976764 0.090190
H -0.906918 0.073035 2.951279
H -1.710368 -0.499408 -0.321425
H 2.290811 2.230967 0.825283
H 0.951654 1.971541 3.016154