15
H7 C5 N1 O2
O -1.748469 1.189156 -1.882310
C 0.046770 -1.429335 -0.289939
C -0.965874 0.525784 -1.208176
O 2.077540 -0.286427 0.453983
C 0.881069 -0.170681 0.118329
C 0.235721 0.743950 1.500943
N -1.076956 -0.813682 -1.006679
C 0.335165 0.947990 -0.509420
H 0.964501 0.437588 2.345657
H 0.741244 -1.974123 -0.946665
H 0.440208 1.850784 1.568040
H 0.880053 1.755876 -1.120191
H -1.807809 -1.328801 -1.400997
H -0.265969 -2.015753 0.593142
H -0.737187 0.567669 1.784266