19
H10 C6 N2 O1
C -0.895398 -1.468775 0.199393
N -1.796014 1.034947 1.322132
C -1.148085 0.458447 1.148758
C -0.038756 -0.291588 0.522489
C 1.051224 1.703015 -0.307814
C -2.577586 -0.016229 0.906433
O -2.335688 -1.150818 0.374083
C 1.743153 -0.472498 -1.134889
N 0.645334 0.374263 -0.598480
H 1.370735 2.187984 -1.244703
H -0.683672 -2.368515 0.754452
H 0.301819 2.378998 0.165337
H 2.143556 -0.026438 -2.029195
H 1.932929 1.756618 0.345495
H 2.597977 -0.553312 -0.460745
H -3.708406 0.177593 1.038885
H -0.784028 -1.707578 -0.910088
H 1.392497 -1.456432 -1.325104
H 0.788411 -0.559716 1.233616