19
H10 C7 N2
C -2.649402 -0.195757 -0.774533
N -0.190901 0.021621 -0.071940
C 3.445698 -0.466905 0.328840
C -0.084167 -0.808698 1.023977
C -2.503608 0.949045 0.279809
C 1.106233 0.283767 -0.573060
C 1.922063 -0.370459 0.327808
N 1.195718 -1.058651 1.262699
C -1.381529 0.623031 -0.649578
H -3.239075 -0.034826 -1.659277
H -0.861625 -1.189300 1.549241
H -3.109536 1.843228 0.088774
H 3.773328 -0.893128 -0.644316
H 3.822144 0.555373 0.334585
H 3.734281 -1.043261 1.122664
H -2.620311 -1.197077 -0.393879
H 1.251690 0.892555 -1.424718
H -2.463090 0.686353 1.325234
H -1.147878 1.403111 -1.452338