16
H8 C5 N2 O1
C -0.169380 -0.298345 0.344384
C -1.409910 -1.034662 0.905236
N 0.498973 1.280394 -1.194489
C 0.813478 -0.020272 -1.807720
C -0.033299 1.172251 0.082881
N 0.317867 -0.908490 -0.902967
C 0.825845 0.478102 1.221920
O 1.349969 -0.164364 -2.832306
H 1.876183 0.398928 1.024114
H 0.817672 2.085361 -1.643246
H 0.520884 -1.822474 -1.059556
H -0.859895 1.883961 0.371393
H -2.102551 -1.260733 0.202367
H -1.077164 -2.015242 1.306152
H -1.796923 -0.455485 1.762045
H 0.428251 0.681087 2.219808