23
H14 C9
C 0.108578 0.552303 2.600010
C 0.260324 -1.707484 -2.170462
C 1.093947 1.126648 1.550352
C -0.243956 -0.291586 -1.670465
C -1.492498 -0.376949 -0.736336
C 0.249179 1.025012 0.233761
C -0.860874 0.094018 0.549533
C -0.932234 -0.262130 1.816127
C 0.878571 0.514835 -0.970869
H -2.264950 0.330450 -1.078021
H -0.584234 -2.181168 -2.672504
H 1.402892 2.137246 1.859005
H 1.952204 0.490262 1.489587
H 1.064428 -1.589977 -2.833696
H 1.699161 -0.165588 -0.665644
H -0.611853 0.260363 -2.613424
H -0.353647 1.400248 3.136214
H 0.562204 -0.063555 3.344141
H -0.222710 2.067169 0.084920
H 1.314134 1.263947 -1.629226
H 0.496788 -2.236778 -1.267792
H -1.562048 -1.024040 2.267001
H -1.953400 -1.363245 -0.622233