19
H10 C7 O2
C 0.339987 0.374459 0.983514
C 0.925510 -0.926037 0.543459
C -0.156075 -1.418903 -0.414291
C 0.481503 0.807916 2.403213
C 0.840477 0.747395 -0.674715
C -0.466731 -0.029668 -0.852223
O 1.790317 -0.020001 -0.276516
C -1.444417 0.187947 -2.076402
O -0.898024 0.626383 0.326026
H 1.552501 0.722220 2.733108
H 1.572788 -1.538893 1.150306
H -1.654353 1.250832 -2.285248
H 0.304925 -2.117198 -1.121878
H -0.192179 0.269182 3.070399
H -0.925551 -0.241568 -2.934273
H 0.199438 1.834943 2.471540
H 1.057977 1.702481 -1.236693
H -0.960892 -1.887630 0.138453
H -2.367202 -0.343834 -1.947773