17
H9 C6 N1 O1
C 0.413213 1.344684 -0.399544
C -1.250596 -0.638867 -0.454459
C -2.115763 -0.579849 0.792936
C 2.624865 0.815517 -0.135869
C 1.131366 -0.957003 0.052025
C 0.177151 -0.145062 -0.280110
N 1.817787 1.652990 -0.391768
O 2.452220 -0.526597 0.187238
H -3.151510 -0.884306 0.635385
H 1.083038 -2.092997 0.246794
H -2.158107 0.448592 1.192127
H -1.271426 -1.717796 -0.767171
H 0.000638 1.731294 -1.311157
H -0.075072 1.893724 0.440152
H -1.716662 -0.119512 -1.275853
H -1.710882 -1.209237 1.584116
H 3.749758 0.984432 -0.114820