14
H6 C3 N4 O1
C 0.018793 -0.202563 0.394306
C -0.482383 -1.781466 2.041776
N 0.386294 2.071191 -2.230669
N -0.809739 0.052804 -1.570655
N 0.627645 0.897920 -0.071218
C 0.097165 0.996235 -1.337360
O 0.263527 -0.593314 1.669468
N -0.775471 -0.815209 -0.438490
H -0.020218 1.826588 -3.066451
H -0.243860 -2.019787 3.083801
H -1.516212 -1.587925 1.955200
H 1.231687 1.538253 0.397614
H 1.405979 2.240661 -2.259937
H -0.183193 -2.623392 1.432648