21
H12 C8 O1
C -0.507466 0.524280 1.357348
C 0.848281 1.393308 -0.468264
C -0.279360 -0.567018 0.316197
C 0.500317 -0.498752 -2.144214
O -0.360966 -1.209365 -2.544127
C -0.261227 -2.052962 0.687280
C 0.400023 1.657463 0.992807
C -1.650287 0.136689 0.327776
C 0.759194 -0.085811 -0.725312
H 1.313374 1.577666 1.623798
H 0.202988 1.965335 -1.213209
H 1.203456 -0.056685 -2.853307
H -2.438577 -0.364893 0.625183
H -1.789664 0.877682 -0.519088
H -0.693656 0.219285 2.335611
H 1.706452 -0.567134 -0.465700
H 0.722425 -2.370271 1.069780
H -0.461633 -2.657635 -0.207693
H -1.036033 -2.342008 1.424998
H 1.837516 1.801915 -0.691323
H -0.015139 2.618927 1.071457