20
H11 C7 N1 O1
C 0.620291 0.884178 -0.643372
C 0.159242 0.081746 1.571139
C 1.537709 -0.346405 -0.599213
C 0.834713 1.472706 1.601672
O 1.199309 2.098600 2.583122
C 0.175017 -0.292409 0.131448
N 0.983771 1.943095 0.272889
C -0.947600 -1.285554 -0.252010
C -1.890475 -0.871133 -1.306477
H -1.412771 -1.557343 0.725903
H 1.506671 2.717486 0.147902
H 0.212167 1.187918 -1.552672
H 1.562376 -1.002446 -1.457281
H -2.666106 -1.654667 -1.508760
H 0.784683 -0.604494 2.101712
H -0.831194 0.313461 1.880961
H -0.447773 -2.264768 -0.539736
H 2.423926 -0.193542 -0.011458
H -1.371166 -0.644726 -2.162984
H -2.432812 0.018282 -0.982757