15
H8 C4 O3
O -0.830897 -1.973142 0.940969
C -0.900333 -0.158710 2.623409
C -0.580825 -0.854803 1.274083
C 0.727411 0.823109 -1.705582
O -0.055337 0.136952 0.430860
C 0.183376 -0.338580 -0.927606
O 0.987246 0.365658 -3.016062
H -1.209924 -0.911876 3.276190
H 0.007001 1.640769 -1.706046
H 0.035394 0.255738 3.011816
H 1.379367 1.093622 -3.457525
H 1.657156 1.188452 -1.163886
H 0.875292 -1.168669 -0.827515
H -1.552159 0.640616 2.561396
H -0.722768 -0.739163 -1.314479