19
H12 C7
C -3.231173 0.951849 0.198166
C -0.576904 0.555857 -0.126017
C 0.868981 0.382450 -0.324601
C 1.216290 0.616880 -1.814702
C 1.353117 -0.998331 0.151002
C 1.110612 -1.257476 1.725520
C -1.745310 0.703273 0.002429
H 0.786730 -1.820490 -0.356712
H 2.304286 0.542131 -1.917188
H 0.750712 -0.142208 -2.424237
H -3.462013 0.998288 1.276155
H -3.512557 1.810888 -0.347522
H 1.681235 -0.495813 2.234223
H 0.052733 -1.179269 1.927555
H 1.460656 -2.321410 1.907546
H 1.383829 1.129304 0.282203
H 2.414693 -1.140822 -0.069661
H -3.742783 0.074107 -0.235286
H 0.886893 1.590781 -2.088870