17
H8 C8 O1
C 0.291518 -0.929925 -0.774572
C 1.054542 1.412010 0.539033
C 1.340250 1.579948 -0.934045
C -1.192648 -0.650556 -1.147964
C -0.834781 -1.549641 0.065627
O -1.049205 0.741703 -0.794489
C 0.348806 0.594159 -0.477119
C -1.221169 -0.947275 2.520976
C -1.046042 -1.197806 1.410991
H -1.005534 -2.607461 -0.191626
H 1.764288 0.923814 1.177392
H -1.750371 -0.963865 -1.980594
H 0.980903 2.462755 -1.435059
H 1.118571 -1.493205 -1.332212
H 2.280406 1.217304 -1.284535
H -1.483765 -0.711208 3.586834
H 0.404206 2.119251 1.051361