15
H7 C4 N3 O1
C -0.678902 -1.272332 -0.733829
C -1.521758 1.547204 -0.189749
N 1.730213 -1.936433 0.383427
C 1.383457 -0.706581 0.416779
C -0.130138 1.050550 0.213162
N 0.175078 -0.277583 -0.007717
N 0.665256 1.830338 0.789081
O -2.388227 0.930068 -0.784831
H -1.617734 2.560897 0.134046
H 0.386616 2.780012 0.891747
H 1.995842 0.044935 0.955652
H -1.597718 -1.358025 -0.185019
H -0.148955 -2.234198 -0.851034
H 2.686254 -2.125840 0.726357
H -0.939270 -0.833009 -1.758091