23
H14 C9
C -0.709252 -0.625272 0.701934
C 0.401886 -0.247903 -1.568699
C 0.584529 -2.483859 -0.376725
C -0.268424 -1.263661 -0.580796
C -0.400330 0.931784 -1.980748
C -0.357456 0.558543 1.159538
C 0.778746 1.167153 -1.070225
C -0.705825 1.006900 2.530996
C 0.504411 1.505219 0.396300
H 1.635630 1.601100 -1.466014
H 0.049175 2.522448 0.460977
H 0.070854 -3.198961 0.215573
H -1.411583 1.007018 -1.584313
H 0.214308 1.216575 3.161090
H 0.758031 -2.943010 -1.412021
H -1.264264 0.217762 3.091229
H -1.266259 1.912221 2.503975
H -0.320670 1.299963 -2.981792
H -1.166084 -1.323890 1.381772
H -1.211140 -1.520085 -1.177632
H 1.041437 -0.670971 -2.323520
H 1.473276 1.601358 0.876712
H 1.569025 -2.270472 0.042407