21
H12 C7 O2
C 1.056006 1.121698 -1.052078
C 0.053639 -0.151824 1.035350
C -0.162380 -2.001920 -1.992938
O 1.492525 -2.128529 1.019190
C 1.344122 -0.855921 1.535767
C -0.133785 0.215050 -0.521842
C -0.226949 -0.986253 -1.293175
C -2.252550 1.345674 0.184079
O -1.346896 0.920691 -0.793574
H 2.192536 -0.152329 1.165747
H -0.194672 -2.859849 -2.610143
H 1.226996 -2.192450 0.109624
H -0.811511 -0.742262 1.286013
H 1.293082 -0.887990 2.494219
H 0.868776 1.406182 -2.068932
H -2.670549 0.533340 0.723242
H -3.061446 1.837347 -0.329603
H 1.129171 2.013217 -0.392041
H -0.044735 0.796833 1.571690
H 2.017750 0.651048 -0.962240
H -1.769119 2.118247 0.891669