16
H7 C5 N3 O1
C -0.364366 0.526657 1.573735
N -1.098050 -0.291052 0.625710
C 0.934912 -0.333377 -1.466227
O -2.305321 -0.948920 0.847408
C -0.614527 -0.150283 -0.579131
C 1.601277 0.107309 -0.172202
N -2.555392 -1.234942 -0.423997
C 0.318546 0.904380 0.231290
N -1.705758 -0.774057 -1.210046
H 0.920725 0.460990 -2.159398
H 2.457538 0.779296 -0.318176
H 0.238307 1.865215 -0.019370
H 1.738990 -0.723882 0.466111
H -0.892874 1.242192 2.129831
H 1.065445 -1.300648 -1.789340
H 0.260544 -0.128925 2.263813