17
H8 C6 O3
O -0.149526 2.557089 0.439386
C 1.907633 0.014853 -0.321939
C 0.035752 -1.652642 0.043435
C 0.455102 -0.482165 -0.870749
C -0.873085 0.286773 -0.396896
C -0.862764 -0.586717 0.859967
O 2.112260 1.227276 -0.109263
C -1.034590 1.730254 0.043129
O 2.673137 -0.870796 -0.145793
H -2.053424 2.011681 0.069018
H 0.530472 -0.599544 -1.928486
H -1.572425 0.055409 -1.150124
H -0.230832 -0.220643 1.690172
H -0.669653 -2.326462 -0.526792
H 0.744356 2.013428 0.600270
H 0.790444 -2.226435 0.458465
H -1.802834 -0.931349 1.246198