16
H7 C5 N3 O1
C 1.071674 -1.893861 -0.301252
C 0.402100 0.467614 0.257767
O -0.360478 2.691998 0.655474
C 0.112446 -0.755920 -0.230685
C -2.067174 -0.114734 -0.524146
N -1.204656 -1.107026 -0.601314
N 1.704499 0.939305 0.501727
C -0.500346 1.559688 0.320677
N -1.772174 1.154520 -0.182029
H 2.366121 0.198617 0.951622
H 1.471913 -2.123771 0.701146
H -2.512861 1.870925 -0.080484
H 1.979701 -1.596284 -0.889816
H 0.589367 -2.749336 -0.739127
H -3.086617 -0.306040 -0.814742
H 1.806480 1.764320 0.975170