17
H8 C5 N4
N -0.055849 -0.603670 1.421639
C -0.658981 0.162599 2.380043
C 0.089569 -0.237318 -1.055285
N -1.141392 -1.779649 2.766431
C 0.806271 -0.272459 0.280560
N -1.279929 -0.535786 3.271634
C -0.537302 0.736310 -1.698013
C 0.628698 0.624451 -2.189309
N -0.428626 -1.859673 1.753197
H -0.540764 1.249971 2.380830
H 1.581131 -1.100887 0.198131
H 1.271935 0.044437 -2.764206
H -0.690188 -0.944877 -1.181216
H -0.402576 1.023390 -3.201522
H 1.261941 1.520328 -1.795923
H 1.307352 0.651536 0.524461
H -1.211333 1.321299 -1.091462