19
H10 C8 O1
C 0.882214 0.847755 1.608047
O -1.364211 -1.141548 0.031795
C 0.672567 -1.820558 -1.240557
C 0.211518 0.459356 0.694041
C 1.669967 1.323684 2.763819
C -0.796783 -1.882390 -1.111782
C -1.589149 1.202068 -0.733557
C -0.107552 -0.630315 -1.649784
C -0.655209 0.058592 -0.379582
H -0.066799 -0.213021 -2.594306
H 1.323391 -1.777984 -0.427578
H -2.209114 1.501401 0.120819
H -2.301037 0.778418 -1.555285
H 1.097502 -2.445024 -2.091694
H 2.158671 2.269262 2.581179
H 1.060290 1.431793 3.674146
H 2.479579 0.594813 3.025532
H -1.403044 -2.593879 -1.565380
H -1.062802 2.037592 -1.149866