16
H7 C6 N1 O2
O -1.693764 0.796799 -1.763084
N 2.391439 -1.306639 1.185616
C 0.822528 0.115886 -0.225064
C 2.163039 -0.179099 0.194097
C 2.630354 0.147185 1.589188
C -2.107006 0.768083 -0.656463
C -3.303496 -0.290894 -1.006662
O -2.713605 -0.261818 0.145312
C -0.244930 0.361706 -0.660519
H 3.661678 0.494087 1.702208
H 2.914728 -0.131442 -0.697047
H 3.228310 -1.752283 0.899230
H 1.847549 0.533481 2.225286
H -4.266158 0.129401 -1.157863
H -3.133759 -1.133680 -1.626795
H -2.196927 1.709237 -0.147443