21
H12 C8 O1
C 0.259320 0.624693 0.815166
C -0.159882 0.120314 -1.225232
C -0.928490 0.912402 -0.121390
C -0.620046 -1.355527 -1.293429
C 0.710756 -0.756435 0.721690
C 1.023202 0.190570 -0.332350
O -0.021292 0.747130 -2.484357
C -0.227755 -1.854799 0.152684
C 0.614102 1.563165 1.928987
H 1.474345 -1.077898 1.419296
H 1.622574 1.246876 2.350021
H -0.027389 1.470280 2.802787
H -0.038515 -1.917890 -1.991589
H 0.121779 -2.831758 0.235437
H -1.947162 0.587061 0.171629
H 0.682108 2.556695 1.616786
H -1.143511 -1.811533 0.796661
H -0.854620 0.679963 -2.902007
H -0.999266 1.960866 -0.423060
H -1.601774 -1.472290 -1.548519
H 2.061551 0.418097 -0.689217