18
H9 C7 N1 O1
C -0.655840 0.368234 0.212227
C 0.661820 -0.422270 0.318201
O -2.222533 1.306445 -0.832794
C 0.628641 -3.007893 -0.125588
C 0.598925 -1.873682 0.069449
C 1.972882 0.204104 -0.014961
C -0.869179 1.642090 -0.513165
C -2.052310 0.036494 -0.226709
N -0.096626 0.087364 1.536975
H -2.142475 -0.718872 -0.930875
H 1.950277 1.308223 0.169900
H 2.775181 -0.169773 0.530910
H -2.719288 -0.208514 0.642892
H 0.366083 0.897448 1.924279
H -0.761641 2.638071 0.087879
H 2.158922 0.087910 -1.105155
H -0.251458 1.845528 -1.431885
H 0.658574 -4.020910 -0.311600