12
H5 C4 N1 O2
O -2.012197 0.907179 0.729960
C 0.560696 -0.587399 -0.671700
C -1.019022 -0.708023 -0.898707
O 2.303889 0.922191 1.205458
C 1.108641 0.980822 1.261016
C -1.116961 0.297937 0.268622
N 0.288589 0.335071 0.416912
H -1.413244 -1.690681 -0.655270
H 1.058464 -0.184599 -1.449012
H -1.364341 -0.351229 -1.866750
H 0.541571 1.644348 1.984514
H 1.063915 -1.565587 -0.325021