19
H10 C8 O1
C -0.903571 -0.300634 -0.336544
C -0.345336 -0.739369 0.857598
O 0.024180 0.058956 -1.351125
C -2.147255 -0.921079 -0.976375
C 1.236048 0.650689 -1.019955
C 0.337974 1.319903 1.123583
C 1.141132 -0.985440 0.951576
C -0.874463 0.533391 0.967132
C 1.465857 0.503742 0.504703
H 1.246986 1.778181 -1.259177
H 1.523805 -1.680508 0.165287
H 1.543047 -1.163705 1.835744
H 2.048282 0.120298 -1.611417
H 2.479759 0.863924 0.815058
H -2.946528 -0.832475 -0.295842
H -1.969096 -1.963377 -1.208154
H -2.408156 -0.408354 -1.896270
H -1.857972 0.843269 1.356377
H 0.405328 2.322571 1.377777