20
H11 C7 N1 O1
C 0.296291 0.136564 0.439118
C -1.076868 -0.368466 1.081908
C 0.446130 -0.191002 -1.150966
C 1.037439 -0.914934 1.472996
C 0.483065 1.261249 -0.576631
C 0.557689 0.407684 2.032077
N -0.207475 -0.625866 2.252234
C -0.570415 -0.606849 -2.082089
O -0.559809 2.169247 -0.872549
H -1.258036 1.728006 -1.182833
H -0.302437 -0.325521 -3.080010
H 0.656948 1.270837 2.564581
H -0.670257 -1.700207 -2.087060
H 1.396354 1.844361 -0.525018
H -1.586760 -0.217762 -1.825446
H 1.162658 -2.006804 1.305465
H -1.803485 0.474466 1.245444
H 1.469215 -0.539612 -1.373677
H 2.101870 -0.553223 1.755791
H -1.572106 -1.242139 0.606665