15
H7 C5 N1 O2
C -0.885159 0.660525 -0.007641
C 2.220519 -1.186097 0.855846
O -0.146646 -1.780231 1.220826
N -1.119569 1.912771 -0.917683
C 0.668506 -1.153455 0.639039
C -2.021694 0.854243 -0.943027
C 0.281657 -0.147667 -0.423617
O 0.850276 -0.108133 -1.544679
H -2.089919 0.309485 -1.862586
H 2.723311 -1.402480 -0.079993
H 2.448291 -1.983144 1.584507
H -1.046663 0.698607 1.052303
H 2.620316 -0.252411 1.237222
H -1.456761 2.674741 -0.310531
H -3.046468 0.903253 -0.500002