15
H6 C5 N4
N 0.358549 1.064335 0.959447
C -0.861406 0.696468 1.074602
C 1.411306 0.546170 0.217560
N 1.453909 -0.331525 -0.724517
C -0.927326 -1.124574 -0.702734
N -2.930294 -0.268431 0.314834
C 0.374811 -1.092763 -1.050895
C -1.592947 -0.273478 0.238143
N 2.547324 1.171560 0.470501
H 3.282935 1.088797 -0.190405
H -1.554901 -1.816928 -1.277486
H -1.440653 1.162050 1.790513
H -3.342742 -0.967307 -0.209544
H 2.562433 1.958282 0.958190
H 0.659047 -1.812642 -1.868198