20
H12 C6 O2
C 1.496623 -0.756058 0.808843
C 0.483193 0.542055 -1.067256
O -0.699882 -2.146270 -0.284839
C 0.249751 -0.064538 0.315622
C -0.047205 1.160364 1.252227
C -0.966438 -0.998334 0.314320
C -0.573281 1.184736 -1.876757
O -0.124968 -0.107576 -2.217816
H -0.343386 0.824386 2.293882
H -1.566528 1.273922 -1.557950
H -1.460726 -2.761758 -0.341401
H -0.217668 2.063857 -2.575678
H -1.844303 -0.485499 -0.152030
H 1.545878 0.833012 -1.234290
H 1.966564 -1.312019 -0.011803
H -1.229679 -1.179409 1.361355
H -0.907533 1.743335 0.857816
H 2.210655 -0.050845 1.287677
H 0.815531 1.794004 1.292573
H 1.213398 -1.557356 1.535526