17
H8 C7 O2
O -1.982651 1.535797 0.309573
C 0.374926 0.535419 0.225100
O -1.181841 -0.285766 -1.620584
C 1.095693 -0.599258 -2.058169
C -0.887771 0.946949 0.962253
C -2.214715 0.293819 0.958856
C -0.056675 -0.125774 -1.207225
C 1.877888 -0.884491 1.768721
C 1.190246 -0.274681 0.963727
H 1.666481 -1.405689 -1.477982
H 0.722130 -1.066411 -2.942623
H -2.791710 0.273149 1.877365
H 0.899732 1.403900 -0.096650
H -2.349095 -0.614166 0.320742
H -0.580718 1.541652 1.902637
H 1.748212 0.236730 -2.257830
H 2.469850 -1.511149 2.372100