16
H7 C7 N1 O1
N -2.186345 -2.053009 -2.497466
C -0.453259 -1.013258 0.718560
O -0.607487 -1.769846 1.583311
C 0.358061 0.277467 0.486686
C -1.554891 -1.405972 -1.744723
C -0.950029 0.667912 -0.252612
C 0.788452 -0.297822 -0.876469
C 1.252920 1.039449 1.411411
C -0.746085 -0.725666 -0.749835
H -0.876779 1.523589 -0.964156
H 1.718748 1.928623 0.963366
H 0.632597 1.413702 2.311248
H -1.842961 0.840266 0.354933
H 1.463091 -1.194960 -0.848872
H 2.058481 0.425017 1.801104
H 0.945486 0.344525 -1.696481