18
H9 C5 N3 O1
C -0.231610 -0.333076 0.613004
N 1.779346 0.479150 1.409537
C 1.669703 0.881716 -0.013810
N 0.595954 -0.033467 -0.472185
C -0.377934 -0.031216 -1.568057
C 0.417832 0.212083 1.858051
O -2.735958 -0.942332 -1.404548
N -1.268242 -1.005925 0.464475
C -1.364856 -1.148985 -1.058931
H -0.112187 1.171742 2.234875
H 0.353956 -0.445942 2.709768
H 2.576991 0.636656 -0.537458
H 1.463592 1.933438 -0.120971
H 2.223585 1.197445 2.015054
H -0.907325 0.957579 -1.760143
H -3.168359 -1.088094 -0.509795
H 0.085917 -0.311311 -2.561628
H -1.000389 -2.129456 -1.297276