20
H11 C7 N1 O1
C -0.073450 -0.913892 -1.986474
N -1.823701 0.103147 -0.790752
C -1.078645 1.144115 -1.431343
C 0.436547 -0.189416 0.399637
C 1.984914 0.600117 1.093451
C -0.362531 -0.054184 -0.942124
C -0.152227 0.330679 1.615664
C 0.056282 -1.103792 1.506219
O 1.747994 -0.149898 -0.015033
H -0.827791 -1.686663 1.225479
H -1.288153 0.415839 1.556408
H 0.781017 -1.545544 2.040919
H -0.417246 -0.866831 -2.977303
H -1.093585 1.394802 -2.470358
H 2.611343 0.149935 1.841208
H 0.104557 1.005107 2.322837
H 2.143993 1.647923 1.049210
H -2.238541 -0.558489 -1.504461
H 0.481425 -1.766748 -1.813053
H -0.992215 2.043781 -0.720139