17
H10 C5 O2
C 0.675106 -0.719471 -0.721087
C -0.785307 -0.752270 -1.046728
C 1.315721 -0.405686 0.541258
O 1.240890 0.562388 -0.566979
C 0.464263 0.010563 1.769041
C -1.480454 0.622550 -1.312198
O 1.128602 1.095589 2.442898
H -0.986388 -1.393051 -1.899193
H -1.374444 1.306381 -0.464739
H 2.362847 -0.709834 0.705080
H 1.297874 -1.358806 -1.365638
H -2.542149 0.505603 -1.538772
H 0.524500 -0.795771 2.466607
H -1.306444 -1.188198 -0.191107
H -0.566034 0.237996 1.526198
H -0.984653 1.104033 -2.160431
H 1.016081 1.877995 1.815802