17
H8 C5 O4
O 2.101864 -0.853343 1.847467
C -1.916277 -0.381655 -2.531476
C -0.525044 -0.178064 -0.645188
O -1.389616 0.418823 -0.118123
C 0.899190 -0.557334 -0.176289
O -0.560425 -0.686301 -1.892562
C 0.661321 1.017500 1.835167
C 1.325435 -0.246481 1.217285
O 1.260906 1.291355 3.060128
H 1.906006 0.539508 3.241940
H -0.446021 0.816053 2.039671
H 1.638087 -0.226605 -0.839240
H 0.883671 -1.730400 -0.218766
H 0.732834 1.882251 1.125388
H -2.687129 -0.860862 -1.883043
H -2.091892 0.666067 -2.574369
H -1.792922 -0.910515 -3.487976