18
H9 C7 N1 O1
C -0.200174 -1.251333 0.511618
C -0.194203 1.318570 1.157767
O -1.378913 0.474363 -0.745092
C -0.320932 0.252298 0.170915
C 0.893672 -1.511842 1.445663
C 1.795698 -1.784693 2.166276
C -1.133881 0.276590 -2.047367
C 0.870138 1.230678 0.063045
N -1.999491 0.344177 -2.945971
H -1.655902 0.181543 -3.865908
H -0.014260 -0.018171 -2.283272
H 0.088025 1.003516 2.225240
H -1.169194 -1.507613 0.958445
H -0.864843 2.134881 1.168200
H -0.048061 -1.769446 -0.409714
H 0.899741 1.925292 -0.739158
H 2.534281 -2.106318 2.846828
H 1.898304 0.807497 0.322487