12
H6 C6
C 0.713227 0.610984 -0.605370
C 0.028816 -0.745246 -0.954398
C -0.886547 -0.614879 0.263997
C -0.773381 0.453144 -0.816562
C 0.944954 0.583939 0.897157
C -0.006671 -0.187611 1.419300
H 1.785313 1.071430 1.379866
H -1.469597 0.979445 -1.421128
H -0.152261 -0.492799 2.449018
H 1.351107 1.102875 -1.339522
H -1.778353 -1.241802 0.369604
H 0.243386 -1.519485 -1.641958