13
H7 C4 N1 O1
C -0.270488 0.149135 0.661240
C -1.046753 0.583742 1.636730
C 1.032779 -1.324209 -0.684047
C 0.067715 0.946261 -1.331011
H 0.661763 0.816182 -2.215309
H -0.877801 1.640224 1.855720
H -2.100108 0.449184 1.384076
H 1.891841 -1.438560 -0.013046
H 0.382026 -2.202886 -0.551904
H 1.366909 -1.277502 -1.702237
H -0.687937 -0.159176 2.509658
N 0.290415 -0.084852 -0.385238
O -0.710363 1.902474 -1.164650