13
H7 C4 N1 O1
C -0.194844 0.739885 1.538275
C -0.288579 -0.976894 -0.254515
C 0.398649 1.345485 0.328570
C 0.260606 -1.145951 -1.672919
H -1.338260 -0.633547 -0.344390
H 1.339289 1.897675 0.366861
H 0.727403 -0.219647 -2.085915
H -0.323175 -1.972916 0.231912
H -0.272960 1.703466 -0.442234
H -1.291077 0.680094 1.585956
H 0.259154 0.820600 2.520137
N 0.529604 -0.083295 0.551056
O 0.194183 -2.154928 -2.322800