15
H6 C5 N2 O2
C -0.519387 -0.316714 1.912991
N -0.958287 1.008985 -0.058076
N 0.967352 0.849606 -2.011427
C 0.846590 -0.266736 -1.321400
C -0.101329 -0.156933 -0.133507
C -0.539656 -1.319773 0.734690
O 1.465553 -1.318201 -1.530467
C 0.003277 0.822947 1.006278
O -0.744042 -0.373507 3.093275
H -1.910290 0.856408 0.285901
H 1.682838 0.806908 -2.810177
H 0.226743 -2.086358 0.863290
H 0.791928 1.589739 1.335956
H 0.352221 1.630758 -1.883776
H -1.563487 -1.727100 0.516439