19
H10 C7 O2
O 1.599010 1.139789 1.922320
C -0.062964 -0.916203 0.693523
C 0.672705 -0.557119 -1.287710
C -0.665266 -0.811412 -0.725265
C 1.277863 -0.380586 0.104050
C -0.560666 0.610277 0.939756
O -1.491929 -1.799281 -1.264118
C 0.935782 1.015722 0.772679
C -1.387318 0.495248 -0.303569
H -0.182400 -1.737878 1.417319
H 2.265938 -0.780683 0.390083
H 1.081136 1.878896 0.093396
H -2.462000 0.319553 -0.091281
H 1.062739 -1.471417 -1.773876
H -1.849262 -1.469949 -2.128733
H 1.233662 1.905662 2.396520
H -0.980030 0.878732 1.880024
H 0.866404 0.295505 -2.031154
H -1.353401 1.385155 -1.003945