17
H8 C5 N2 O2
C 0.674205 -0.328370 -2.041816
C 0.970228 0.385325 0.208908
N -1.243023 0.523319 -1.008976
C 0.219543 0.651461 -1.011025
C 0.315970 0.646708 1.689722
O -0.337114 -1.736882 0.982507
C 0.693615 -0.822723 1.157942
N 1.089518 -1.121584 -2.771968
O -2.066215 -0.178579 -0.483782
H 0.386667 1.671156 -1.336854
H 1.503589 -1.345890 1.605849
H -1.583828 1.319805 -0.655004
H 0.995928 0.952108 2.421108
H -1.126907 -1.302835 0.681162
H -0.675915 0.824194 1.734062
H 2.020863 0.592061 0.131435
H -1.837109 -0.729266 -1.303308