19
H10 C7 O2
C 0.491176 -0.855563 -0.093751
O 0.577679 -1.391416 -2.410805
C 1.572443 -0.290767 0.826964
C -0.830142 -0.149654 -0.291311
C 0.802951 -1.514530 1.200143
O -0.737631 2.053730 0.807739
C -1.880118 2.234491 -0.116382
C -0.707689 1.376421 -0.416616
C 1.034686 -1.515798 -1.315802
H -2.810620 1.782024 0.239479
H 1.967829 -2.023602 -1.119786
H -1.540745 -0.334953 0.558339
H 0.071876 -1.506435 2.006447
H 1.352786 -2.464324 1.156337
H -1.278838 -0.563966 -1.220535
H 2.568740 -0.379051 0.503681
H 0.023051 1.696071 -1.134488
H -1.936772 3.222895 -0.578134
H 1.259312 0.624441 1.398461