12
H3 C3 N3 O3
O 0.241104 -0.152522 -2.688215
C 0.222883 0.034403 -1.330652
C 0.968306 0.718861 1.527186
O 1.572794 1.043581 0.284620
C -1.065166 -0.520219 0.724255
O 1.475164 1.107999 2.549957
N -0.232008 0.079827 1.657869
N 1.214094 0.755678 -0.951217
N -0.729856 -0.567638 -0.689699
H -1.115834 -1.601532 1.052527
H -0.490820 -0.729115 -2.960081
H -2.060654 -0.169311 0.823390