21
H12 C9
C 0.671273 2.474047 -0.491787
C -1.668443 -0.409816 0.918039
C 2.046538 1.890687 -0.448457
C 0.508115 0.416790 -0.025461
C -1.592328 -1.343284 -0.257655
C -0.283709 0.117746 1.135240
C -0.225408 -2.000091 -0.241272
C 0.736895 -0.955076 0.513797
C 0.848950 1.097615 -1.076509
H 0.108619 3.217081 -0.502114
H 2.724025 2.111454 -1.201898
H 1.615034 -1.236278 0.948022
H -2.021439 -0.909743 1.806013
H -2.388297 0.413050 0.738429
H 2.399883 1.798570 0.603895
H -0.060196 0.473938 2.147620
H 0.193883 -2.225512 -1.234596
H -2.402059 -2.149989 -0.308837
H -0.133278 -2.935420 0.367328
H -1.767929 -0.866676 -1.256648
H 0.689849 1.020908 -2.133115