19
H11 C7 N1
C -0.928402 0.042375 -2.126473
C 1.436432 0.437109 1.055061
C 0.396096 0.399157 2.180912
C 0.446417 0.228955 -1.472998
C 0.220133 -1.219472 -0.793851
C -0.767185 0.442596 1.169513
N -1.078177 -1.299822 -1.491441
C 0.314160 0.014253 0.030248
H -0.872154 -0.083957 -3.210294
H -1.697696 0.779005 -1.880122
H 0.461220 1.187493 2.907024
H 0.824392 -2.057938 -0.619997
H 2.312074 -0.215830 1.047031
H -1.193862 1.425562 1.034365
H 1.817184 1.465713 0.844776
H 1.309986 0.703654 -1.862532
H -1.612035 -0.213288 1.298211
H 0.473950 -0.633216 2.713329
H -1.862542 -1.402349 -0.822760