10
H3 C3 N3 O1
O 2.233797 0.236960 -0.883034
C -0.097188 -0.192724 -1.209036
C 1.119915 0.110281 -0.489804
N -1.445108 -0.202378 0.537535
N -1.253801 -0.275662 -0.743732
N -0.434187 0.123643 1.453089
C 0.722460 0.256181 1.019674
H -2.375598 -0.268029 0.922456
H 1.515738 0.484443 1.718474
H 0.013990 -0.272715 -2.325627