13
H5 C5 N1 O2
C -0.447155 0.560507 -0.436996
C 0.829685 -0.657721 0.930604
C -0.124688 1.355134 0.695062
O 1.410460 -1.699548 1.331595
C 0.608832 0.608228 1.569404
N 0.183490 -1.579851 -1.269420
C 0.171526 -0.619626 -0.349315
O -1.203608 0.976337 -1.562154
H -1.612301 1.855411 -1.426066
H 0.404006 -2.523233 -0.902332
H 0.968599 0.923202 2.545673
H -0.645142 -1.658989 -1.977001
H -0.543739 2.460140 0.850955