21
H12 C6 N2 O1
C -0.260299 0.370722 -0.166192
C 2.072486 0.051388 0.539114
C -2.603238 -1.482780 -1.444380
N -0.777668 -1.571424 1.229029
C 0.803667 0.880712 0.723129
N -1.330274 -1.737619 -1.089382
C -0.785594 -1.090446 0.036671
C 1.026580 2.365857 0.531256
O -3.447433 -0.910755 -0.838763
H 0.502056 0.706247 1.781219
H 2.483317 0.154013 -0.492244
H -0.034492 0.473220 -1.216284
H 1.921444 -0.991409 0.749863
H 0.153661 2.965457 0.682529
H 1.462703 2.567548 -0.575445
H -0.662738 -2.157870 -1.594971
H -2.833636 -2.123686 -2.362717
H 2.861184 0.377217 1.266566
H -1.164597 1.052181 -0.029903
H 1.861636 2.715844 1.163429
H -1.248723 -2.614386 1.107489