18
H9 C6 N1 O2
C -0.774360 -1.461156 0.063196
C -0.478050 0.259302 -1.426785
C -0.016295 -0.840898 1.164044
N -1.384429 -0.359939 0.759471
C -1.473978 0.664199 -0.337135
C 1.311583 1.062094 0.004309
O 0.698357 0.881763 -1.341088
C 1.406770 -0.236244 0.855425
O -0.451611 -1.168109 -1.267966
H 1.908780 -0.985275 0.286621
H -1.316052 1.672096 0.069864
H 2.327211 1.412254 -0.283757
H -1.105859 -2.507775 0.186969
H 0.815217 1.831623 0.537864
H -0.068929 -1.227507 2.138848
H -0.794051 0.405953 -2.412939
H 1.891625 0.065157 1.734939
H -2.495927 0.532444 -0.731881