14
H5 C5 N3 O1
O -2.110334 -2.069635 -1.350649
C -1.421097 -1.701886 -0.425461
N 0.358760 -0.675812 1.694894
C 0.186170 0.009832 0.468666
N -0.140143 1.397651 -1.899943
C 0.923762 1.228361 0.248069
C -0.611275 -0.439356 -0.500926
C 0.720737 1.869963 -0.910246
N -0.717970 0.259028 -1.686413
H 1.181956 2.803039 -1.131348
H 0.323229 -1.708586 1.707558
H 1.577920 1.592642 0.991742
H -1.260601 -2.237108 0.448744
H 0.988880 -0.328124 2.345315