20
H11 C6 N1 O2
C -2.082893 -0.029445 -0.851455
C 0.506724 1.733166 -0.020548
O -2.714979 -0.747125 -1.828224
C -0.653926 -0.462007 -0.584357
C 0.121164 0.330917 0.506734
C 1.358790 -0.436570 0.877093
N 1.439815 -1.126923 2.154172
C 2.366612 -0.577445 0.051213
O 3.139133 -0.835048 -0.611090
H 1.595536 1.768348 -0.290145
H -0.494673 0.396173 1.400141
H -0.073612 -0.517675 -1.504688
H -2.693550 -0.144576 0.044314
H -0.738701 -1.544018 -0.228992
H -2.056155 1.108803 -1.153125
H 0.642971 -1.200524 2.713473
H 2.149520 -1.827615 2.065675
H 0.411861 2.494417 0.803137
H -0.029803 2.105174 -0.825457
H -2.193819 -0.488044 -2.717902