21
H12 C7 O2
C 1.164659 1.843842 0.188458
O -0.444422 -0.702902 1.304096
C 0.126736 1.006520 -0.315393
C 0.053314 -0.498545 0.015882
C -0.945903 -1.275418 -0.992321
O 1.681699 2.402238 1.108410
C -1.612585 -0.107871 1.801481
C 1.074955 1.672602 -1.281112
C 1.455622 -1.181132 0.018508
H 1.905584 -1.103898 -0.931736
H -1.561345 0.938903 1.788900
H -1.833176 -0.447015 2.779708
H 2.028012 -0.694992 0.735821
H 0.699247 2.462191 -1.774101
H 1.758245 1.025302 -1.765558
H -2.513093 -0.317916 1.186669
H 1.294750 -2.155296 0.226752
H -1.882474 -0.800224 -1.072928
H -0.496495 -1.236516 -1.978769
H -0.908332 1.427162 -0.360001
H -1.045016 -2.257083 -0.682766