14
H6 C5 O3
O -1.882227 -1.021487 -2.352154
C -0.399445 -1.697554 0.731667
C 1.116733 1.563340 -0.052136
C -0.017537 0.600002 0.202937
O -1.437263 -1.643473 -0.213131
C 0.389100 -0.635664 0.866799
C -1.379403 -0.798226 -1.323432
O -0.575311 0.329641 -1.062614
H -0.360083 -2.580238 1.258327
H 0.690301 2.522327 -0.489151
H 1.227412 -0.797789 1.442427
H -0.815366 1.064675 0.798088
H 1.582312 1.894201 0.855641
H 1.860803 1.200255 -0.663215