10
H3 C5 N1 O1
N 0.763828 1.020664 -2.832032
C 1.270856 -1.011921 2.456502
C 0.063832 0.769095 -1.959198
C -0.035483 -0.237960 0.504925
C -0.792482 0.313420 -0.755273
C 0.633481 -0.581757 1.412046
O 1.763391 -1.292642 3.309670
H -1.847174 0.321439 -0.569052
H -0.921813 -0.851781 -1.235319
H -0.898435 1.551455 -0.332274