12
H3 C5 N3 O1
O -2.904266 -1.422809 0.023450
C -0.832631 -0.290380 -0.298626
C 0.885807 0.129622 0.952007
C -2.145795 -0.811149 -0.757831
C 1.795598 0.220580 2.009281
C 0.059124 0.405908 -1.062545
N 2.589776 0.340395 2.913800
N 1.203609 0.676058 -0.306339
N -0.332362 -0.488995 0.928330
H 2.009474 1.115286 -0.542619
H 0.048464 0.721896 -2.076471
H -2.376798 -0.596452 -1.782462