17
H8 C5 N2 O2
C 0.777855 -0.360438 0.574085
C 0.505254 -1.788072 0.099526
C 0.294186 0.798792 -0.291173
N -1.711627 -2.752306 -0.553904
C 0.774693 2.205373 -0.066260
O -0.088459 3.154179 -0.585216
C -1.024398 -1.850301 -0.098145
O -1.527263 -0.582559 0.351560
N -0.538864 0.228416 0.765189
H 0.763117 -2.575715 0.837468
H -2.673806 -2.504333 -0.508521
H 1.785118 2.327227 -0.571181
H 1.029593 -2.028999 -0.826144
H 1.590956 -0.255208 1.268717
H 0.926589 2.340754 1.019540
H 0.072821 0.608110 -1.326169
H -0.955759 3.035063 -0.089381