18
H9 C6 N3
C -2.313076 -2.111824 1.319441
C 1.081205 0.850890 -0.416668
C -0.741367 -0.837215 0.116089
N -0.754229 -0.173015 -0.898166
C 2.163698 1.820907 -0.810520
C 1.374119 -0.344242 0.266482
N -2.033428 -1.029590 0.329643
C -0.353614 1.165738 -0.810987
N 0.411432 -1.174050 0.693015
H 2.424631 -0.598530 0.410762
H -3.219527 -2.646377 0.953270
H -0.832819 1.814935 -0.192372
H -0.453116 1.569555 -1.872954
H 3.147084 1.449536 -0.493609
H 2.177722 1.960858 -1.921308
H -1.456101 -2.789008 1.444381
H 2.023137 2.784861 -0.358929
H -2.645724 -1.713405 2.242445