19
H10 C8 O1
C 1.042640 1.237099 0.580148
C -1.605533 -0.201334 -1.389134
C 1.159580 -0.301682 0.344757
C 0.039483 0.037101 0.809660
C -0.493094 1.581559 0.586553
C 0.301870 1.617403 -0.695052
O -1.162597 -1.333448 -2.155856
C 0.808130 -1.493009 1.426152
C -0.538065 0.386090 -0.572874
H 1.743805 1.873913 1.190412
H 1.399337 -1.415874 2.264687
H -1.123468 2.308225 1.058718
H -2.432344 -0.424536 -0.758128
H -0.868877 -1.960708 -1.527429
H -1.893013 0.584621 -2.113958
H 1.960763 -0.618453 -0.263642
H 0.548202 2.307316 -1.357141
H -0.121027 -1.839758 1.627133
H 1.234158 -2.344548 0.945012