18
H10 C6 O2
O 2.036389 -0.027070 0.852925
C 0.106992 -0.321656 -0.554149
C 2.165862 -1.964229 -0.662375
C -0.457063 1.285323 1.381390
C 1.492989 -0.695816 -0.017850
C -2.144587 0.759985 -0.395940
C -0.635485 0.884931 -0.089448
O -0.354677 -1.161046 -1.331632
H 2.164424 -1.800432 -1.716205
H -2.655929 -0.011050 0.262168
H -0.842824 0.484815 2.115213
H 3.172916 -2.058204 -0.235412
H -1.036862 2.179064 1.621292
H -2.635745 1.689658 -0.227698
H -0.155687 1.651281 -0.704191
H 0.560153 1.487239 1.605919
H 1.521774 -2.834693 -0.466475
H -2.302629 0.451899 -1.437540