19
H10 C7 O2
O 1.497573 -0.677881 1.236102
C -0.926437 0.025085 1.099431
C 0.889863 2.484992 -0.763179
O -0.049181 1.433135 -0.982732
C -1.512331 -1.564295 -0.933603
C -0.450501 -0.922634 -0.005185
C 0.763290 -1.678783 0.459958
C -0.075931 0.524436 -0.018185
C 0.596899 0.411085 1.329077
H 0.510460 -2.537354 1.193817
H 0.697204 3.113594 0.092324
H 0.839282 1.265664 1.902901
H -1.809923 0.266369 1.546659
H 1.432707 -2.087045 -0.288023
H -1.004923 -1.926979 -1.827688
H -1.932896 -2.456743 -0.485302
H -2.240602 -0.877244 -1.187310
H 0.855377 3.087865 -1.659142
H 1.920089 2.116752 -0.709923