18
H9 C7 N1 O1
C 0.826573 -0.568969 -1.710920
C 0.029188 1.024975 1.391173
C -0.357916 -1.171480 0.266901
C -0.172604 0.241773 -0.807957
C 0.888994 0.507605 0.257608
O -1.290390 1.023257 -0.981435
C 1.139308 -1.006362 -0.193754
C -1.788418 0.913497 0.178234
N -1.342645 0.189453 1.062179
H -2.709083 1.414207 0.358113
H 1.629262 -0.046243 -2.164338
H -0.958777 -1.885525 -0.306019
H 0.318809 0.739945 2.333163
H 1.747165 1.141967 -0.051337
H 0.407128 -1.344199 -2.344476
H 0.013124 2.142633 1.328919
H 1.916951 -1.715696 0.044387
H -0.296682 -1.600862 1.339562