15
H7 C5 N3
C 0.365519 1.181626 -0.587346
C 0.772015 2.422738 -1.262229
N 0.634822 1.098353 0.685032
C -0.595666 -2.223994 1.469830
N 0.352476 -0.010940 1.366503
C -0.571505 -0.820691 -0.635367
C -0.296538 -1.022907 0.732266
N -0.251887 0.266620 -1.322796
H -1.011586 -1.656982 -1.227307
H -0.306958 -2.133381 2.497866
H -0.037926 -3.114210 1.101955
H 1.816338 2.686853 -1.219197
H -1.622874 -2.433020 1.486786
H 0.490715 2.426206 -2.343197
H 0.263091 3.333762 -0.742787