21
H12 C6 N2 O1
C -1.424720 -1.565733 -0.179178
C -1.263081 2.322087 0.401927
N 1.589034 -1.865185 0.586741
C 1.138543 -0.746967 0.078951
N -0.737124 -0.856720 0.784814
C 0.127990 0.243099 0.567022
C 2.105519 -0.277146 -0.987115
C -0.428630 1.387331 -0.382079
O 3.226557 -0.667395 -1.069320
H -1.684662 -2.530322 0.292257
H 1.324846 -1.856172 1.598621
H -2.065760 1.820168 0.955620
H 2.254638 -2.291413 0.318435
H 0.341430 0.684781 1.606688
H -0.986215 0.842873 -1.240940
H 1.737676 0.403539 -1.737746
H -0.867101 -1.719778 -1.077546
H 0.401030 1.869330 -0.858298
H -0.677672 2.873801 1.143937
H -1.734118 2.986192 -0.277490
H -2.378198 -1.056381 -0.525294