19
H10 C7 O2
O 1.971653 2.034034 -0.911071
C -0.008689 0.604238 1.633180
C 0.864295 0.310862 0.470970
C -1.082862 -0.579334 1.592480
C -0.173542 -0.302812 -0.510517
C 0.361851 -1.395364 -1.448511
C -0.333658 1.085946 -1.255155
C 1.050101 1.356010 -0.589266
O -1.331970 -0.806551 0.186216
H -1.144724 1.628748 -0.801233
H -0.399868 1.128941 -2.333081
H -2.013634 -0.398048 2.039133
H -0.633727 -1.477727 2.076748
H 1.149788 -1.120761 -2.041443
H -0.577704 1.547049 1.559811
H 0.593564 -2.246457 -0.874677
H 0.489063 0.611512 2.614806
H -0.509573 -1.716291 -2.152516
H 1.729635 -0.264025 0.744158