16
H7 C5 N3 O1
C 0.053233 0.559536 -0.518631
C 0.558628 -0.361339 1.416446
C -0.359626 -1.353759 -1.155340
N 0.828524 -1.352562 2.093090
C -0.144080 1.254701 -1.782956
C -0.507827 1.506781 0.643234
O -0.200228 0.703343 1.801594
N 0.899221 -0.146962 -0.033940
N -0.321912 1.905360 -2.619664
H -1.428574 -1.416142 -1.023755
H -0.156969 -1.291570 -2.127534
H -0.001795 -2.243214 -0.701963
H 0.025788 2.433459 0.716710
H 1.673218 -0.654254 -0.411883
H 0.631396 -1.231371 3.060466
H -1.548991 1.687991 0.644145