15
H6 C7 O2
O -0.988196 1.467384 2.457238
C 0.558069 0.292269 1.093293
C -1.551715 -2.049552 -0.292569
C -0.616926 1.287994 1.336280
C -0.623833 -1.333741 -0.311220
C 0.506506 -0.385760 -0.356049
O 1.687344 -1.096880 -0.480112
C 0.133981 1.323685 -2.290087
C 0.339548 0.482336 -1.421100
H 1.940092 -1.578430 0.331593
H -2.401650 -2.723087 -0.299876
H 0.129181 2.039862 -3.092973
H -1.089506 1.719262 0.416382
H 0.551192 -0.426694 1.879778
H 1.425951 0.981331 1.029458