18
H9 C7 N1 O1
C -1.834385 1.058404 -0.239297
C -0.387678 0.009703 1.436725
N 2.702466 -2.205632 0.936399
C 1.884388 -1.713872 0.244253
C 0.442227 0.285825 0.110708
C -0.384302 1.100264 -0.861812
C 0.879063 -1.036321 -0.558842
C -1.802063 0.405673 0.960355
O 1.340187 -0.883005 -1.947748
H -2.680245 1.448400 -0.699752
H -2.654250 0.309189 1.657531
H 1.369453 0.878749 0.375101
H -0.104500 2.160657 -0.915706
H 2.154397 -0.342883 -1.871006
H -0.391191 -1.118898 1.686985
H -0.462580 0.749661 -1.850631
H -0.001995 -1.644039 -0.726241
H -0.068999 0.538125 2.262957