19
H10 C8 O1
C 1.037892 1.880619 -1.447123
C 0.805106 0.808190 -0.419580
C -0.425902 -0.051472 -0.341885
C 0.173641 -1.533983 -0.147719
C -0.707828 -0.261925 1.206990
C -2.231433 -0.565133 0.385620
C 0.792417 -0.897679 1.152985
O -1.777019 0.132390 -0.764301
C 1.609042 0.204958 0.567884
H -0.554050 -2.329606 0.148019
H 1.193314 -1.536258 1.953285
H 2.020092 2.347399 -1.263868
H -3.068595 -0.047089 0.870117
H 0.839647 -1.867037 -0.902249
H 0.364237 2.710531 -1.217504
H -2.644164 -1.585238 0.094749
H 2.650162 0.401071 0.738237
H -0.889584 0.570439 1.815762
H 0.813007 1.619820 -2.429427