19
H10 C8 O1
C 0.440630 -0.399785 -0.715401
C -0.338018 -2.083447 0.144261
C -0.613924 1.167831 1.194945
C -0.822899 -1.276237 -1.032149
C 0.456910 1.103088 -1.152234
C 0.628765 1.561958 0.323392
C -0.366456 -0.304949 0.720957
C 1.009975 0.242685 0.879288
O -1.705425 -0.511324 -0.034273
H -1.353124 -1.564595 -1.877085
H 1.330219 1.485865 -1.802578
H -1.669319 1.582305 0.943919
H -0.471640 1.328512 2.235429
H 1.365173 -0.918403 -0.990518
H -1.084861 -2.718714 0.602251
H -0.408766 1.445893 -1.595823
H 0.540863 -2.666968 -0.078407
H 1.181210 2.531097 0.663386
H 1.880724 -0.004813 1.570673