14
H5 C5 N3 O1
C 0.597973 0.874817 -1.019630
C -1.137053 -1.076128 1.836707
O 0.164582 -1.208165 -1.292998
C -0.111806 0.460128 0.339714
C -0.781543 -1.841843 0.702335
C -0.222562 -0.918682 -0.177228
N -0.814373 0.123545 1.853656
N 0.990746 2.126916 -1.434368
N 0.723487 -0.016699 -1.771417
H -1.712799 -1.571615 2.656413
H 1.408576 2.087125 -2.370659
H 1.749361 2.476872 -0.875293
H 0.028131 1.329347 0.974424
H -0.882730 -2.845601 0.578291