16
H7 C7 N1 O1
O 0.810810 1.463631 -0.871173
C 0.800494 -0.971306 -1.210182
C 0.902378 -0.459912 1.130468
C 0.776381 0.198362 -0.248469
C -0.699685 0.026354 -0.188238
C -0.632084 1.249081 -1.156672
C -0.141974 -0.026422 2.031628
C -1.197042 0.083973 1.195825
N -0.277544 -1.430165 -0.305610
H -0.051785 0.107566 3.088276
H -2.235252 0.102259 1.553516
H -0.804410 1.050105 -2.181767
H 1.679875 -1.649726 -1.129163
H -1.216565 2.085570 -0.924680
H 1.788296 -0.979051 1.468648
H 0.498097 -0.850306 -2.252398