16
H7 C7 N1 O1
O -0.725663 2.465781 0.991854
C 0.686156 0.591787 1.540168
C -0.620606 -1.161071 -2.197285
C -0.309745 0.924067 -0.822539
C -0.735912 -0.537748 -0.849032
C 0.043879 -1.354763 0.155434
C 0.769415 -0.847908 1.207931
C -0.189311 1.402241 0.614994
N -0.489465 -1.553557 -3.203762
H 0.472659 0.792952 2.575496
H -1.810911 -0.554475 -0.573123
H 1.781652 1.077647 1.455432
H 1.311364 -1.482296 1.831231
H -0.981386 1.604042 -1.345475
H 0.681970 1.065823 -1.348836
H 0.115938 -2.432508 -0.032459