16
H7 C6 N3
C 1.095491 -1.465064 0.162853
C -1.356203 1.875335 -0.101731
C 0.622073 -0.560930 1.081721
C 0.682613 0.805458 0.811746
C -0.647123 0.761312 0.060361
N -0.909205 -0.273850 1.399951
C -0.489085 -0.153545 -1.243382
N 0.748361 -1.043019 -1.208941
N -2.011868 2.839931 -0.281472
H -1.429995 -0.837196 -1.283762
H -1.114020 0.341805 2.155274
H 1.514136 -0.427263 -1.583641
H -0.528691 0.458161 -2.087936
H 1.152564 1.670535 1.348859
H 0.597581 -2.491881 0.251000
H 2.073364 -1.499794 0.519095