19
H11 C5 N1 O2
C 1.134425 0.755413 -0.465969
N 2.482778 0.505898 -0.402506
C -3.334095 -1.267308 0.385393
O 3.165449 2.396050 0.710486
C 0.239385 -0.448931 0.085625
C 3.398455 1.316985 0.171878
C -1.221053 -0.187233 -0.022952
O -1.909190 -1.380429 0.428779
H 0.533697 -1.321463 -0.522166
H -3.603366 -0.430776 1.029641
H -1.536466 0.019227 -1.050375
H -3.653535 -2.222036 0.717462
H 0.742646 0.996986 -1.533920
H 2.828785 -0.409229 -0.823974
H 4.439765 0.978858 0.040684
H -1.522094 0.682190 0.569501
H -3.645658 -1.011099 -0.628695
H 0.557252 -0.614815 1.098026
H 0.902801 1.641700 0.213068