19
H10 C6 O3
C -1.582309 0.673674 -1.858684
O -2.032167 -0.510281 -1.157839
C 0.172505 -1.418316 0.407538
C 1.859176 0.521757 0.758295
C -0.480503 0.986427 -0.147015
O 0.878892 -2.168166 1.359533
C -1.930120 0.713863 -0.438972
C 0.350714 0.015995 0.743384
O -0.141560 0.787801 -1.606667
H -2.779542 1.125467 0.093207
H 2.216162 0.370338 -0.336922
H 1.884657 1.452611 0.943957
H -0.872709 -1.729713 0.418592
H -0.272470 2.023932 0.069583
H -0.012423 0.193995 1.719644
H 2.438520 -0.143074 1.360912
H 1.770098 -2.304234 1.125804
H 0.565434 -1.587606 -0.686595
H -2.032352 0.995503 -2.767758