10
H1 C2 N5 O2
O -1.049757 -0.281510 1.076358
C 0.438212 -0.896948 -1.308231
N 1.363659 -0.244169 -0.722406
N 0.667063 1.301278 0.857388
C -0.421874 0.906707 1.356592
O 0.991453 -1.657474 -1.915463
N -0.972997 -0.751880 -1.235345
N -1.677423 -0.541742 -0.242260
N 1.513698 0.651653 0.117362
H -0.852039 1.514081 2.015987