16
H7 C6 N1 O2
O 1.288552 0.051166 2.070074
C 2.073399 -0.015742 -1.214423
C -1.611782 0.694931 0.129651
C -0.169423 0.172959 0.046231
C -1.342249 -0.802329 0.360667
C 0.589536 0.462187 -1.195233
N -0.780120 -1.116276 1.692938
C 0.285428 -0.267265 1.422099
O 1.763778 1.370568 -0.979765
H -1.730353 -1.607373 -0.275625
H -1.994803 1.273547 0.986608
H -1.989103 0.946154 -0.816022
H 2.463735 -0.538814 -0.415157
H -1.366580 -0.982831 2.516554
H 0.101078 0.558793 -2.127784
H 2.418904 -0.199680 -2.200798