16
H7 C6 N1 O2
O 1.993376 1.810708 0.088909
C 0.930829 -0.416686 -1.739883
C 0.300465 0.220959 -0.508886
C -0.548076 -0.803170 0.253476
O -0.297754 -1.058179 1.642224
C -1.521200 -0.402888 1.284205
C 1.499373 0.814633 0.319022
C -1.781278 0.966340 1.567637
N -2.001151 2.114577 1.694531
H 1.561172 -1.256506 -1.479159
H -0.727128 -1.736524 -0.341400
H -2.393545 -1.083495 1.405937
H 1.529435 0.342839 -2.275018
H -0.346833 1.038141 -0.798463
H 0.127732 -0.762258 -2.449562
H 1.674559 0.211514 1.336430