21
H12 C8 O1
C -1.135190 0.253484 1.767010
C 0.830505 1.601556 1.095979
C 0.920820 0.158976 -1.496831
C -1.714962 -0.226144 2.768428
C -0.409961 0.865803 0.563326
C -0.080427 -0.273753 -0.396133
C 1.341111 -1.348947 -1.082896
O 0.748774 -1.219563 0.242496
C -1.315995 -0.889789 -1.057104
H 0.489587 2.294001 1.972703
H 2.416932 -1.403855 -1.120972
H -1.068411 1.508074 0.186125
H -2.195843 -0.610551 3.581461
H 1.730079 0.886274 -1.196586
H -1.705914 -1.558441 -0.348036
H 1.571040 0.935298 1.483901
H -1.031613 -1.401255 -2.012975
H 0.401684 0.494972 -2.377116
H 0.930841 -2.281644 -1.573138
H 1.236256 2.271872 0.378641
H -1.959287 -0.056391 -1.378303