21
H12 C6 N2 O1
C 0.225526 0.982692 -0.191692
C 0.130103 -1.464063 0.093437
O 1.920770 1.096975 -0.405026
C -2.319316 0.767698 -0.288056
N 0.409154 -0.304971 -0.659801
C 0.981631 -1.703649 1.385069
C -0.356281 2.234681 0.171764
N -1.112255 1.121061 0.468065
C 1.817268 -0.201984 -1.137113
H 0.405830 2.851075 0.624498
H -1.093815 2.917100 -0.259163
H 0.883922 -0.896996 2.102855
H 0.571203 -2.654233 1.820917
H -0.975378 -1.444752 0.433655
H 2.003193 -1.889215 1.147752
H 2.275002 -1.270580 -0.976038
H -2.266014 1.182827 -1.329122
H 0.075133 -2.248978 -0.784541
H 2.043363 0.011312 -2.126737
H -3.194157 1.229385 0.189959
H -2.424861 -0.315436 -0.280691