16
H7 C6 N3
C 1.286169 1.430008 -1.253691
C -0.472980 0.957655 -0.161889
N 0.163576 1.915978 -0.883190
C 1.429178 0.178588 -0.739436
C -1.864059 1.035899 0.403818
C -0.018152 -1.350199 0.619944
N 1.788203 -3.275810 0.468393
C 0.978371 -2.469760 0.540812
N 0.333063 -0.104236 -0.067339
H 1.983195 2.003526 -1.828115
H 2.284615 -0.575290 -0.814923
H -0.252191 -1.122401 1.679091
H -2.290524 1.974219 0.250421
H -2.534290 0.270502 0.016325
H -1.828676 0.893459 1.550747
H -0.985494 -1.762138 0.219010