12
H6 C6
C 3.839691 0.873494 0.381862
C 1.274221 0.559235 -0.061819
C 0.097986 0.435851 -0.232819
C -1.352842 0.236658 -0.451849
C -1.876724 -1.054838 0.168650
C 2.634251 0.744593 0.177239
H -1.387341 -1.929077 -0.255797
H -1.709808 -1.072685 1.257456
H -2.961185 -1.156586 0.002360
H -1.533914 0.243660 -1.542424
H -1.870502 1.096659 -0.026940
H 4.846170 1.023039 0.584064