12
H6 C6
C -1.717598 0.568091 0.640849
C -3.028216 1.018310 1.079283
C 0.622130 -0.238744 -0.210734
C -0.629088 0.221617 0.246491
C 3.035058 -1.007575 -1.091541
C 1.709303 -0.585029 -0.590482
H -2.925319 1.588771 2.014519
H 3.805513 -0.288734 -0.837532
H -3.682798 0.150729 1.267923
H -3.498775 1.657394 0.341665
H 3.307917 -1.981668 -0.676828
H 3.001852 -1.103161 -2.183629