12
H6 C6
C -0.497782 0.641720 1.143992
C -0.753805 2.487598 2.954260
C 0.862579 -0.813691 -1.804167
C -0.347296 -0.194367 0.291566
C -0.615652 1.631162 2.091859
C -0.169346 -1.220498 -0.728736
H 0.512077 0.075013 -2.329454
H -0.836038 3.219741 3.694685
H 1.850566 -0.619614 -1.349419
H 0.976601 -1.623520 -2.520630
H 0.155785 -2.145058 -0.247441
H -1.137699 -1.438468 -1.196509