12
H6 C6
C 0.479617 -0.034111 0.794466
C -0.915197 0.246187 -1.099767
C 0.821663 -0.905739 -0.308606
C 1.075219 0.179613 1.954801
C -0.757916 0.729797 0.278448
C 0.005022 -0.682951 -1.386146
H 0.068741 -1.184653 -2.334735
H 1.603051 0.337538 2.913676
H -0.685932 1.806158 0.492146
H 1.630706 -1.664118 -0.313714
H -1.610777 0.736547 -1.796305
H -1.714207 0.435747 0.805739