12
H6 C6
C -0.244199 -0.446025 0.376970
C -1.116863 -2.311609 2.180765
C 0.206344 0.424465 -0.479666
C 1.162981 2.296735 -2.143750
C 0.602950 1.325476 -1.258698
C -0.652853 -1.263958 1.232074
H 1.644288 3.144512 -1.610260
H 0.334812 2.702396 -2.782271
H -0.410948 -3.076529 2.330453
H -2.060028 -2.777722 1.817667
H -1.392422 -1.836551 3.159599
H 1.925948 1.818805 -2.822867