21
H12 C8 O1
C 0.996614 1.232085 -1.011287
C 0.243482 -1.085478 0.082915
C -0.919556 -1.784637 -0.758871
C 1.257085 1.619322 0.555159
C -0.163599 -1.025422 1.601559
C -1.260410 -0.302759 -1.202031
C -0.201322 1.161508 0.792535
C -0.065934 0.292568 -0.492148
O -0.607922 0.339273 1.877488
H 1.775635 0.888663 -1.580277
H -0.872891 -1.649489 1.962770
H -0.508004 -2.424637 -1.470936
H 1.985190 0.924314 0.946072
H -1.715133 -2.210512 -0.260764
H 0.748154 -1.143505 2.220128
H -1.218407 -0.273571 -2.312391
H 1.262781 -1.456064 -0.055956
H 1.638181 2.631743 0.783069
H 0.671052 2.162884 -1.472889
H -0.827285 2.024996 0.747506
H -2.217703 0.078687 -0.951646