13
H6 C5 N2
C 0.176033 0.089348 0.365119
C 0.309395 -2.387796 0.560374
N 0.768590 -3.328061 1.170671
C 0.153779 2.490846 0.034422
C -0.285627 -1.321637 -0.212028
C -0.233910 1.177215 -0.578782
N 0.463745 3.518587 0.426961
H -1.285810 1.204335 -0.731921
H 0.094062 -1.384950 -1.181082
H 1.265794 0.044814 0.536635
H -0.260633 0.307256 1.367459
H -1.347090 -1.410188 -0.194354
H 0.181676 1.000221 -1.563457