15
H6 C5 N2 O2
N -0.846593 0.745656 0.637630
C 0.115636 1.828592 1.163312
O -1.320603 -0.447317 -1.193553
C -0.664315 -1.309163 -2.151617
C -0.362182 0.681913 2.079695
C 0.859390 -0.711263 -0.500958
O -1.269583 -1.773820 -3.095580
C -0.411429 -0.094958 -0.247429
N 0.643137 -1.440132 -1.640569
H 1.775262 -0.645184 0.008284
H 1.312638 -2.011160 -2.097657
H 0.382691 -0.131431 2.140667
H -1.043014 0.788100 2.846205
H 1.106755 1.777795 0.792381
H -0.277770 2.742393 1.259197