17
H8 C5 N4
N 0.438758 -1.685803 4.023850
C -0.130855 0.328536 1.142166
C 0.210073 -1.415051 2.825171
N -0.520709 1.218701 2.071213
C 0.052913 -1.146740 1.484688
N 0.257947 0.766914 -0.108524
C 0.452491 0.041463 -1.284235
C 0.182673 0.592574 -2.559549
N -0.596999 -0.487139 -2.115903
H -0.699001 2.139360 1.753704
H -0.018506 1.771274 -0.191711
H -0.427892 1.551032 -2.656455
H -1.483562 -0.395598 -1.753433
H 1.314935 -0.634559 -1.159548
H 0.888674 0.436270 -3.367254
H -0.810320 -1.585267 1.024879
H 0.889371 -1.495983 0.870917