25
H16 C8 O1
C -1.764793 -1.075320 0.721548
C 1.596457 -1.390717 -1.839297
C 0.914040 1.491772 -0.629751
C -0.199138 0.553058 2.077724
C 0.164270 0.162805 -0.506044
C -0.803984 0.092604 0.772795
C -1.283261 1.377620 1.418690
O -0.662626 0.019235 -1.654623
C 1.113395 -1.028468 -0.418544
H -0.956243 2.345779 1.090071
H 0.800344 0.985674 2.147852
H 0.229967 2.354074 -0.915615
H 1.972216 -0.713447 0.178045
H -2.264010 1.378240 1.760948
H 1.696417 1.448440 -1.439713
H -0.526748 -0.006422 2.951978
H 2.417181 -2.156500 -1.757035
H 0.741296 -1.771369 -2.406911
H 1.463489 1.787732 0.302365
H 0.714243 -1.875339 0.088044
H -2.792474 -0.723310 0.633239
H 2.046883 -0.557435 -2.361233
H -1.319798 0.717859 -1.716548
H -1.707139 -1.702345 1.619764
H -1.589925 -1.714187 -0.117714