18
H9 C7 N1 O1
C -0.637400 -0.318684 -1.045528
C 0.430407 0.788055 0.620303
O 0.509056 1.828680 -1.778702
C -0.750660 -0.276194 0.450380
N -0.423563 -1.514826 1.056489
C 0.343725 -2.130111 0.153367
C 0.126178 -1.614641 -1.253599
C 0.224252 0.895164 -0.984690
C 0.218357 2.036271 1.299451
H -1.760532 0.020928 0.819086
H -1.531757 -0.254606 -1.768271
H 1.307324 0.274771 1.027872
H 1.036029 2.695313 1.208692
H 1.111043 -1.494244 -1.774838
H 0.848554 -2.992240 0.468126
H 0.062657 1.833293 2.394699
H -0.689098 2.613735 0.931135
H -0.424558 -2.390705 -1.823962