14
H5 C5 N1 O3
C 1.782161 0.773783 1.746774
C -2.087393 -1.083752 -0.268831
C 0.875696 0.387597 0.606125
O -2.132947 -2.160937 0.219839
C -0.739303 -0.427372 -0.581665
N -0.269850 -0.147206 0.731984
C -0.600542 0.026156 -2.063481
O 1.285688 0.517337 -0.581670
O -1.562054 -0.130680 -2.764613
H 1.923949 -0.085470 2.363835
H 0.432866 0.225451 -2.378780
H 1.341635 1.557693 2.250489
H -2.949488 -0.541460 -0.567857
H 2.699574 1.088872 1.287882