15
H7 C5 N1 O2
C -0.586811 -0.868829 2.140522
C 0.402251 0.012961 -1.223223
C -0.063679 0.171910 1.162407
C 1.063200 -0.335056 0.203699
O -1.146532 0.645107 0.406191
C -1.122254 0.010725 -0.876117
O 0.840752 1.322129 -1.614521
N -0.964079 -1.696178 2.795391
H 0.683652 -0.707877 -1.955735
H 0.456822 1.935376 -1.029027
H -1.662921 0.690241 -1.548015
H 1.211398 -1.428993 0.302432
H 0.375289 1.031437 1.762351
H 2.002681 0.172178 0.343096
H -1.489771 -0.955107 -0.869438