15
H6 C4 N4 O1
O -0.695234 1.476545 -0.170488
C -0.175192 0.475076 0.213785
N -0.395524 0.892546 2.570044
C 0.022152 0.082698 1.591014
C -0.066518 0.010689 -2.775870
N 0.402158 -0.689350 -0.556307
N 0.482187 -0.897471 -1.779596
N 0.937073 -1.535236 0.337284
C 0.734144 -1.074000 1.590557
H 1.087903 -1.702281 2.385249
H -1.172580 0.202595 -2.563923
H -0.744803 0.435821 3.400424
H -0.958309 1.705515 2.241525
H 0.458427 1.004024 -2.718079
H 0.084104 -0.387155 -3.765607