19
H11 C7 N1
C -1.129397 1.364844 0.338954
C -0.191971 -0.962038 0.779495
C -0.731893 0.023818 -0.319368
C 1.201699 -1.433486 0.254815
C -2.346061 1.364398 1.114208
C 1.751283 -0.237493 -0.584584
C 0.459123 0.248043 -1.287980
N -3.305520 1.387119 1.711139
H -0.865101 -1.777675 0.974504
H 1.099929 -2.282362 -0.421287
H -0.296146 1.763082 0.901316
H -1.185277 2.112627 -0.485831
H 2.486799 -0.509429 -1.253760
H 2.118813 0.592365 0.054727
H 1.826601 -1.726599 1.060214
H -1.599024 -0.387204 -0.783607
H -0.141219 -0.421318 1.796595
H 0.249824 -0.367332 -2.185391
H 0.597588 1.248658 -1.664160