15
H7 C4 N1 O3
N 1.766019 -1.425971 0.774028
C 1.546377 -1.316756 -0.556023
C -1.439065 0.784552 -0.087703
O -3.173733 2.313962 0.365082
C -1.977289 1.908649 0.596978
O 2.282807 -1.699680 -1.468791
C 0.348268 -0.435440 -0.894078
O -0.409976 0.153046 0.392427
H 0.761858 0.432389 -1.514760
H 0.295205 0.682646 1.015191
H -1.860568 0.517617 -1.011767
H 2.554983 -1.984990 1.021921
H -1.314441 2.411140 1.321532
H -0.403763 -0.996447 -1.407682
H 1.023337 -1.344737 1.453622