15
H6 C4 N4 O1
C -0.243228 1.369853 0.114616
C 0.083547 -0.265767 -1.530100
C 0.208202 -1.209633 -0.521752
O -0.350166 2.624720 -0.002441
N 0.459963 -2.526617 -0.877474
N 0.061217 -0.930072 0.772780
C -0.130694 0.974688 -1.106190
N -0.194311 0.357623 1.066943
N -0.411210 0.946673 2.358290
H -0.269521 2.634977 -1.186846
H 0.517800 -3.100952 -0.152568
H -0.426029 1.882569 2.333972
H 0.614466 -2.736853 -1.826834
H 0.144583 -0.465603 -2.573160
H -0.064608 0.444423 3.130767