18
H9 C6 N1 O2
O 0.201071 -0.959008 2.432563
C 0.565045 -0.660969 1.053767
C -1.934759 0.050806 2.135828
C -0.554324 0.083506 0.414081
C 0.805342 0.864677 -2.887120
N -1.710388 0.436466 0.895188
C 0.835969 0.151483 -1.557265
O -0.354365 0.588119 -0.892975
C -1.049932 -0.611282 2.906811
H -1.209519 -0.927517 3.870970
H 1.818854 0.476661 -1.054485
H 1.706848 0.532084 -3.478311
H 0.734138 1.940950 -2.891489
H -2.949682 0.217715 2.536840
H 1.483471 -0.060625 1.111377
H 0.777322 -1.666800 0.540806
H 0.929896 -0.908519 -1.627904
H -0.094991 0.452266 -3.508694