16
H7 C6 N1 O2
O 1.098068 -2.233588 -0.649386
C -0.252380 -2.265177 -0.882354
C -0.137130 1.770772 1.505859
C 0.335571 -0.995379 -0.935323
O -0.299234 2.205161 -0.921680
C -0.086449 1.324317 0.172170
C 0.158219 -0.078238 0.248044
C 0.315266 -0.325999 1.574585
N 0.121907 0.704440 2.373482
H -0.958360 1.784054 -1.534068
H -0.628003 -2.826045 -1.792433
H -0.304447 2.723752 1.934508
H 0.574880 -1.335156 2.016704
H 0.523314 -0.540764 -1.895047
H -0.926308 -2.575335 -0.039063
H 0.465079 2.663171 -1.176023