19
H10 C9
C 0.097379 0.370564 -0.655671
C 1.213764 0.235245 0.386216
C 1.366391 -0.499552 -0.945893
C -0.691992 0.308978 1.719191
C 0.430559 -0.663792 1.371934
C -1.098018 -0.051808 0.213448
C -0.365340 2.066037 -2.545481
C -0.687369 -1.499071 0.462255
C -0.147455 1.376619 -1.687689
H 1.458514 -1.570829 -0.913609
H -0.549188 2.814726 -3.384411
H 1.933740 -0.087182 -1.773040
H 0.981387 -1.169000 2.096495
H 1.831403 1.059991 0.685841
H -0.520067 -2.052922 -0.464697
H -1.339863 -0.087613 2.485032
H -2.169006 0.165958 -0.089125
H -0.448358 1.335493 1.958909
H -1.296503 -2.051822 1.080300