25
H16 C9
C -0.167919 0.625339 1.113403
C -0.305694 -0.480241 -0.677345
C -0.845322 0.983155 -0.226609
C 3.023857 -1.807750 0.958304
C 1.164793 -0.309089 -0.999829
C -2.381322 1.221152 -0.250144
C -2.944853 1.373831 -1.679969
C 0.834466 -0.360204 0.455594
C 1.770334 -1.082728 1.421828
H 0.236741 1.526303 1.649010
H -2.583837 2.140469 0.290114
H -0.351845 1.760517 -0.789996
H -0.874506 -1.261025 -0.919237
H -2.872476 0.367967 0.217977
H 1.575739 -1.198211 -1.411907
H -0.790357 0.052405 1.813854
H -4.006090 1.515154 -1.682187
H 2.757560 -2.591372 0.127660
H 3.748167 -1.123810 0.527828
H 2.060092 -0.351418 2.213848
H -2.454915 2.171130 -2.242637
H 1.527558 0.614284 -1.396421
H 3.480303 -2.368657 1.772171
H 1.130989 -1.870926 1.995117
H -2.731444 0.453725 -2.280466