16
H8 C4 N4
C -0.090295 0.081192 -1.448607
N 1.660107 -0.229790 2.833705
C 0.478717 -0.265975 0.963287
C -1.598722 0.379065 -1.773836
N 0.323382 0.854541 1.609357
N -0.078288 -0.766445 -0.193809
C 1.367796 -1.014174 1.736964
N 1.034964 0.821132 2.791081
H 0.410561 1.060238 -1.334186
H 0.467548 -0.382474 -2.232867
H -0.176626 1.740198 1.411950
H 0.189914 -1.621733 -0.424537
H -2.078878 0.904439 -0.947676
H 1.817990 -2.026669 1.620891
H -2.086535 -0.556793 -1.958543
H -1.641636 1.023245 -2.653140