18
H10 C5 N2 O1
C 0.089171 -1.106485 -0.500767
N -0.869359 0.831649 0.616985
C -0.467087 2.259686 2.494951
C 1.192415 -1.173986 -2.616945
C -0.405731 0.848850 1.996387
N 0.119773 -0.623718 -1.828071
C -1.013358 -0.300403 0.191400
O 0.056015 -0.116891 2.517828
H 1.147621 -0.880628 -3.664261
H 0.189626 2.924265 1.971780
H -0.130535 -2.205268 -0.476430
H 2.166840 -0.892377 -2.122116
H -2.020707 -0.808744 0.175538
H 1.226389 -2.262934 -2.566064
H -1.470078 2.673185 2.504936
H -0.732718 -0.498741 -2.306046
H 0.982044 -0.936321 0.044983
H -0.060296 2.268873 3.565922