22
H14 C8
C 1.379875 0.251321 0.182254
C -0.213477 0.183026 2.226137
C 0.435416 1.252432 -0.708687
C 0.306459 0.796564 -2.173663
C -0.813726 0.567711 -0.221161
C 0.026311 -0.362455 0.809983
C -0.993659 0.038992 -1.766146
C -0.129686 -1.832106 0.816512
H 1.997933 0.691510 0.928532
H 0.675440 -2.331435 1.436306
H -0.282626 1.282025 2.235209
H -1.653196 1.046255 0.150701
H -1.039973 -1.016198 -1.865886
H 1.975716 -0.473009 -0.367247
H -1.076542 -2.214586 1.170448
H 1.042040 0.151026 -2.563153
H -1.893465 0.542986 -2.186543
H 0.193889 1.638020 -2.841066
H 0.649394 2.375073 -0.521842
H 0.569059 -0.159012 2.905685
H -0.001185 -2.268155 -0.284662
H -1.153985 -0.159994 2.638286