17
H8 C8 O1
O -1.148706 2.530157 0.727713
C 0.474146 0.599498 1.250508
C 1.561450 -0.527376 -0.552364
C -0.846927 -0.362342 -1.312367
C -1.422958 0.143553 -0.029301
C -0.432210 -0.649793 0.815154
C -0.777322 1.414974 0.652628
C 0.247363 -1.104144 -0.443664
C 1.683271 0.518692 0.360087
H 2.459733 1.238069 0.320417
H 0.302448 -2.220619 -0.667731
H -2.552309 0.140862 0.197657
H -0.601044 -1.353107 1.644830
H 0.744045 0.838618 2.215099
H -0.423460 0.447170 -1.975412
H 2.301110 -0.699498 -1.341324
H -1.568621 -0.954713 -1.861926