20
H11 C7 N1 O1
C 2.230586 -0.027066 0.156875
C -2.142663 -1.165918 -1.458168
C -0.132298 -0.922237 0.121422
O -2.390568 -2.136018 -0.546551
C -1.646744 -0.596586 -0.076710
C 0.824923 0.277418 -0.094419
N 2.662480 3.035202 1.031843
C 0.609638 1.426798 0.884833
C 1.911984 2.152927 0.877232
H 2.510288 -0.671860 0.951877
H 3.033875 0.221796 -0.515770
H -0.051850 -1.294712 1.162041
H -0.200902 2.099389 0.596078
H -1.878965 0.498393 -0.260927
H 0.363304 1.066228 1.896970
H -2.250647 -0.631703 0.822672
H 0.678623 0.595527 -1.123468
H -1.389669 -1.432197 -2.178869
H 0.264437 -1.795158 -0.416732
H -3.005838 -0.700213 -1.830236