21
H12 C8 O1
C 0.275087 -0.259156 -0.773564
C -3.156756 0.248594 0.435889
C -0.719941 0.333911 1.235377
C 0.587444 0.110310 0.641101
C 1.935830 0.241854 1.355034
C 0.959587 0.294808 -2.032660
O -1.163837 -0.280994 -0.851307
C 1.007262 -1.181291 -1.574340
C -1.650203 0.160092 0.291717
H 2.731306 -0.257441 0.716675
H -3.648897 -0.686921 0.243966
H -0.848128 0.618248 2.236060
H 2.329696 1.310767 0.964438
H -3.420608 0.614726 1.423071
H 0.424891 -1.916499 -2.246773
H 1.959223 -0.897503 1.967064
H -3.554368 0.989307 -0.257881
H 0.321783 0.530471 -2.876834
H 1.807595 0.888992 -1.934156
H 1.972437 -1.558358 -1.295487
H 1.850623 0.696075 2.332594