17
H10 C6 O1
C 0.928618 1.354504 0.178877
C 2.061383 -0.796794 -0.661607
C 0.836214 0.137109 -0.820879
C -0.247750 -0.090880 0.040507
C -2.507573 -0.627183 0.317690
C 0.167925 0.689059 1.171844
O -1.209576 -1.042050 -0.010361
H -2.875478 0.049655 -0.454159
H -3.108522 -1.496011 0.421372
H -0.981636 1.697458 -0.202613
H -2.510746 -0.017002 1.288538
H 2.927471 -0.360516 -1.169272
H 1.878092 -1.754948 -0.992710
H 1.578015 2.201120 0.161349
H 0.667453 0.327088 -1.909506
H 0.006049 0.592337 2.219742
H 2.390066 -0.862973 0.421201