22
H13 C8 N1
C 0.564705 -1.019019 1.708652
C -0.631497 1.296891 -2.682002
C 0.686119 0.298371 -0.762057
C -0.634622 -0.150517 1.241870
C -0.696203 0.520780 -1.416089
C 0.483210 -0.926624 0.263982
C 1.954570 -0.587166 2.202282
C -1.779296 0.083508 -0.720380
N -1.793784 -0.554755 0.572985
H 0.322263 1.302864 -3.209605
H -1.397119 0.837052 -3.346046
H -0.669388 0.848131 1.751014
H 0.334609 -1.785280 -0.289122
H 0.111587 -1.921892 2.160614
H 2.275684 0.332241 1.698365
H -2.626770 -0.307718 1.081149
H -0.971073 2.284059 -2.582436
H 1.028919 1.183333 -0.230983
H -2.765085 0.120582 -1.276555
H 1.492552 0.064309 -1.467550
H 1.979245 -0.507492 3.335563
H 2.731385 -1.411692 1.966397