20
H11 C7 N1 O1
C 1.065334 -1.448214 -0.221799
C -1.655377 0.102689 -0.899235
C -0.724536 0.362281 0.363569
C 0.725254 0.051868 -0.016452
C 2.520472 -1.767086 -0.341079
O 1.545285 0.872886 -0.137936
C -2.167614 2.305777 1.139884
C -0.802769 1.820385 0.801783
N -3.175281 2.475794 1.394378
H -1.030247 -0.342753 1.128446
H 0.501212 -1.821632 -1.020918
H 3.056536 -1.328511 0.549239
H 0.624316 -2.003194 0.699320
H -1.638132 -0.982171 -1.120740
H 2.772511 -2.667815 -0.464372
H 2.882304 -1.163394 -1.189004
H -2.652182 0.383826 -0.696560
H -0.139107 1.946022 1.688618
H -0.346302 2.529809 0.069940
H -1.361720 0.673419 -1.727076