12
H6 C6
C -0.665406 -0.344263 1.195618
C 0.188566 0.703421 1.229840
C 0.716976 -0.577913 -0.767643
C 0.739305 0.805932 -0.163645
C -0.360623 0.306055 -1.109015
C -0.656627 -0.890208 -0.188206
H -1.232135 -1.719076 -0.527143
H -1.274210 -0.727322 1.999700
H 1.440568 -1.142918 -1.302919
H -0.810082 0.692093 -1.971427
H 1.429002 1.587520 -0.469446
H 0.484660 1.306683 2.074291