12
H6 C6
C 0.702484 -0.498045 -0.793830
C 0.159335 0.594979 0.989378
C 0.383568 -0.876231 0.678806
C -0.701883 0.072333 -0.925965
C -0.992200 -0.273293 0.534470
C 0.450251 0.978716 -0.475481
H 0.744016 -1.691196 1.301321
H -1.908676 -0.520851 1.066604
H 1.354324 -0.960197 -1.530192
H -1.351126 0.157804 -1.778333
H 0.324142 1.148866 1.906168
H 0.835753 1.867090 -0.972955