13
H7 C4 N1 O1
C -1.283501 0.516270 -1.356237
C -0.480457 0.255794 -0.108205
C 1.484490 -0.663579 1.154815
C 0.799392 -0.445560 -0.154526
H -0.590694 0.202183 -2.280548
H -1.791552 1.041489 0.989049
H 0.966397 -1.353812 1.799816
H -1.469901 1.579972 -1.478763
H 2.463175 -1.121102 0.990811
H 1.623044 0.258192 1.832346
H -2.202029 -0.036414 -1.348928
N -0.943363 0.579328 1.110667
O 1.290174 -0.706153 -1.278903