13
H7 C4 N1 O1
C 1.850085 -0.503284 0.118154
C 0.483491 -0.064154 -0.338679
C -1.580507 0.050971 0.252344
C -0.274283 0.964592 0.449813
H -2.147955 0.478021 -0.535434
H -2.155980 -0.144135 1.157456
H -0.916632 -1.557578 -0.891156
H 1.902199 -1.490129 0.486724
H 0.592669 0.247972 -1.470583
H -0.304888 1.953195 0.048370
H 0.012057 0.993877 1.457886
N -0.614187 -1.024006 -0.140132
O 2.903761 0.215509 0.058125