13
H7 C4 N1 O1
C -0.239681 -0.017033 -0.605059
C 0.507325 1.242799 -0.433273
C -1.018612 -0.665026 1.636106
C 1.100810 0.124444 -1.291520
H 0.146374 2.102467 -0.981637
H -1.136903 -0.005723 -1.126459
H -1.532184 0.272934 1.630509
H 0.957023 1.417704 0.486054
H 1.950196 -0.388209 -0.921272
H 1.159243 0.199139 -2.363831
H 0.091776 -1.909147 0.437178
N -0.261355 -0.949156 0.469234
O -0.998514 -1.384050 2.572753