18
H9 C5 N3 O1
C -2.179818 0.594714 -2.391764
N -0.547473 0.205625 0.883474
C 1.850656 0.306650 0.367827
N -1.395422 0.484278 -1.192959
C 1.782384 -1.312560 2.165217
C -1.674622 0.212923 0.083435
C 0.375794 0.413203 -0.040669
O 2.340701 -0.850962 0.921201
N 0.019543 0.473344 -1.254653
H -2.683250 0.097992 0.463935
H 1.949319 1.130078 1.153061
H 2.337935 -2.239613 2.423114
H 2.438890 0.629195 -0.473556
H -1.948419 -0.191161 -3.127121
H 1.848288 -0.548691 2.938722
H 0.710240 -1.526244 2.105642
H -1.960190 1.553115 -2.840905
H -3.264553 0.568139 -2.183989