15
H6 C6 O3
O -0.789335 0.948565 0.206773
C -0.015080 3.013485 1.445481
C -0.500775 -1.275133 1.173022
C -0.305441 2.001042 0.871875
O -0.054948 -1.768807 -2.911616
C 0.734747 -0.593076 -1.009213
O 0.715344 -0.515229 1.486686
C -0.114243 -0.840025 -2.135614
C 0.002890 -0.249206 0.292650
H -1.381679 -1.002806 1.824120
H 1.345546 0.337696 -1.137299
H 0.348387 3.815896 1.914014
H 1.320880 -1.475986 -0.814385
H -1.054312 -0.133390 -2.223569
H -0.251973 -2.263027 1.017083