23
H14 C7 O2
C -2.316993 -0.277678 -0.096351
C 0.066598 -0.338718 -0.555050
C 2.475668 -0.827149 0.294565
C -3.382934 -0.438664 1.041884
C 1.420889 0.236301 0.026752
O 1.137250 0.942789 1.217696
C 2.170326 1.063352 -1.053686
C 2.604743 1.702875 -1.911850
O -0.994585 -0.166882 0.415004
H -3.070237 -1.165714 1.682470
H 3.121661 2.243732 -2.668443
H 0.165534 -0.829199 -1.438136
H -0.343247 0.657118 -1.232754
H 1.076681 1.967650 0.831039
H 0.209142 0.577304 1.556706
H -2.505273 0.670739 -0.629187
H -3.478744 0.453023 1.593461
H 0.154079 -1.544050 -0.181932
H 2.757295 -1.479391 -0.495981
H -2.408327 -1.059421 -0.708896
H -4.302418 -0.617537 0.543405
H 2.092981 -1.485410 1.195837
H 3.349920 -0.285068 0.573436