15
H7 C5 N1 O2
C -0.654634 -0.935961 1.661390
C 0.313939 -0.820512 0.573012
C -0.602871 1.981719 -1.626695
O -1.378991 0.672132 0.649772
C 1.524089 -1.603991 0.309634
O 0.202723 0.925078 -1.142577
C -0.235579 0.256170 -0.026515
N -1.641215 -0.123948 1.658223
H -0.098190 2.304785 -2.587375
H -0.644430 -1.703636 2.432568
H -1.637893 1.736049 -1.861092
H 2.316016 -1.037684 -0.068415
H 1.257571 -2.430879 -0.389693
H 1.912368 -2.075357 1.282923
H -0.632928 2.856070 -0.865176