18
H9 C6 N1 O2
C -1.328317 -0.876104 0.709798
C 0.474742 0.712791 -1.747522
N -0.210286 -0.366103 -0.951679
C 0.069989 -0.348808 0.524817
O 2.454037 -0.058137 0.588548
C -1.524134 -0.154831 -0.663051
C -1.580853 0.579600 0.783480
C 1.353039 -0.857938 1.019807
O -0.294141 0.977863 0.988240
H 1.572023 0.603758 -1.748286
H -2.365984 -0.199189 -1.371277
H 0.169534 0.712542 -2.819397
H 1.318234 -0.871262 2.092203
H -1.772503 -1.768836 1.167560
H 2.301502 0.878506 0.888623
H 1.555388 -1.835363 0.692307
H -2.474430 1.121691 1.154766
H 0.282160 1.749774 -1.308931