16
H7 C6 N1 O2
C 1.565686 -1.285058 -0.904439
C -0.425100 -0.276783 0.659134
O 2.126593 -2.198981 -0.995770
C -1.563321 -0.208997 -0.377743
C -0.181342 0.876546 1.655380
N -2.700632 0.132835 -0.240860
O -0.830956 -0.470395 -1.445132
C 1.678433 0.200698 -1.014576
C 0.401761 -0.444197 -0.604219
H 0.664976 0.599570 2.224170
H -0.489298 -1.217643 1.173120
H -0.983316 0.981117 2.329696
H 2.263674 0.747598 -0.300439
H -0.020788 1.784020 1.087875
H -3.198795 0.141863 -1.161684
H 1.692386 0.637792 -2.084509