19
H10 C8 O1
O 0.732734 -2.056918 0.499726
C 0.011679 0.282570 0.773089
C -0.067225 0.603627 -1.568610
C 0.312623 -0.988131 -0.139221
C -1.218902 1.029810 0.435989
C 0.956265 0.377259 -0.401373
C 0.494123 0.254777 2.191302
C -1.249978 1.341147 -0.891166
C -0.378898 -0.931640 -1.510137
H -1.425905 -1.223845 -1.572473
H -0.239412 -0.206530 2.896155
H -2.025450 1.846431 -1.417024
H 0.348368 1.024778 -2.436356
H 0.768075 1.239589 2.567092
H 1.452157 -0.419333 2.224446
H 1.189117 -2.647940 -0.192303
H -2.006628 1.230369 1.090590
H 0.329553 -1.464324 -2.249176
H 2.017738 0.708282 -0.300513