21
H12 C8 O1
C 0.972442 -1.176818 -0.976406
C -0.941328 -0.053793 0.017790
C 0.032684 0.910554 -0.285362
C -0.163159 2.330318 0.025457
C -0.633258 -2.537200 0.564847
C -0.493592 -1.428073 -0.463879
C -0.259131 2.570672 1.582310
O -1.232712 3.172315 2.062886
C 1.159516 0.337936 -1.027705
H 0.809219 2.888264 -0.271793
H -1.812010 0.132195 0.500355
H 0.070801 -2.272208 1.462686
H 2.133951 0.661546 -0.697946
H 0.484496 2.088788 2.206019
H -0.307388 -3.543151 0.267477
H -1.086627 -1.651592 -1.296522
H 1.688974 -1.594157 -0.194453
H 1.029468 0.640915 -2.164668
H -0.976438 2.787939 -0.500921
H 1.169529 -1.692218 -1.827993
H -1.645422 -2.572217 1.017822