17
H8 C5 N2 O2
C 0.008918 0.425087 0.011677
N 0.690796 -1.812601 -0.022261
C -1.073742 1.429567 0.575426
O 1.467710 2.315378 -0.032076
O -0.669855 -2.547013 -1.668455
C 0.463545 -0.618455 0.962329
N -0.536097 -0.378617 -1.114658
C -0.295257 -1.627470 -1.016270
C 1.249491 1.260916 -0.477891
H 1.925052 0.656583 -1.147193
H 1.430707 -0.401461 1.440282
H -1.227136 -0.032068 -1.795131
H -0.277574 -0.904679 1.663638
H -1.398350 2.110668 -0.107629
H -0.638064 2.007573 1.459131
H 0.776457 -2.694782 0.313999
H -1.896599 0.811355 0.955069