13
H4 C5 N1 O2 F1
O 1.726146 0.503578 0.693524
N -0.809750 -1.989998 1.104632
C 0.153457 1.055446 -0.816875
C -0.194102 -0.904254 0.673547
C -0.629959 -0.111147 -0.445329
O -1.828323 -0.352932 -0.913637
C 1.064885 -0.518588 1.151325
F -0.350961 1.784447 -1.729351
C 1.282463 1.298153 -0.264789
H 1.918299 2.129562 -0.512533
H -1.746952 -2.043607 0.756778
H -2.051457 0.256651 -1.670222
H 1.466251 -1.107315 1.972943