16
H7 C7 N1 O1
O 0.320427 -0.612319 1.974466
C 1.835617 0.171396 -2.147551
C 0.474186 -0.821125 0.577931
C -0.717678 -0.134157 1.243612
C 0.731308 0.490342 -0.043493
N 1.371668 0.973909 -1.027319
C -0.288310 1.300995 0.863898
C -3.207467 -0.986870 1.297491
C -2.094424 -0.645260 1.276293
H -4.138416 -1.372443 1.277816
H -0.924754 1.904691 0.252085
H 0.589214 -1.718262 0.166766
H 0.251413 1.847154 1.596785
H 1.439328 0.533772 -3.155593
H 2.908490 0.009113 -2.111697
H 1.449404 -0.940960 -2.041450