18
H9 C7 N1 O1
C 2.515635 0.865386 0.534853
C -1.189684 -0.949662 -1.057726
C -1.900654 0.342764 -0.902562
C -0.284340 0.434082 0.734300
C 1.127352 0.368367 0.088599
C -0.413252 -1.080681 0.249482
N 1.111472 -1.055891 0.139632
C -1.456976 1.091158 0.119952
O 2.789287 1.192899 1.574131
H -0.166274 0.633884 1.767684
H -0.811131 -1.859940 1.001181
H -2.697870 0.674892 -1.592883
H 1.429302 -1.255357 1.172826
H -1.829080 2.068788 0.431185
H -0.501844 -1.010612 -1.901317
H -1.870967 -1.793552 -1.152897
H 0.943934 0.809905 -0.946118
H 3.205117 0.523578 -0.260300