17
H8 C6 O3
O 1.178864 -2.062507 1.430261
C 0.073077 2.664768 -1.030134
C 0.445024 0.182489 -0.204268
C -0.251518 1.303588 -0.518142
C -1.703162 -0.159756 0.137565
O -1.605628 1.061895 -0.285656
C -0.439590 -0.747057 0.330000
C -0.135979 -2.122007 0.683773
O 1.785332 0.155961 -0.194636
H -0.854602 -2.560398 1.368941
H -0.172052 3.421132 -0.389777
H 2.070892 -0.580978 0.253395
H -0.377545 2.888098 -2.104653
H -2.644865 -0.530055 0.420360
H 1.457920 -2.816756 1.523911
H -0.020905 -2.795680 -0.154514
H 1.194735 2.697259 -1.266414