21
H12 C6 O3
C -0.877721 0.642492 1.163861
C -1.260677 -1.386297 -0.212560
O 1.851249 -0.453584 -2.097635
C -0.396940 2.054476 1.240084
C 1.055794 -0.650734 0.116506
C 1.659141 -1.284217 -1.131290
C -0.428436 -0.185062 -0.078013
O -1.070816 -2.460600 0.432137
O -0.521227 0.658716 -1.313765
H 1.679826 0.224258 0.394773
H 1.110028 -1.370448 0.970300
H -0.522734 0.119669 2.053866
H -2.149195 -1.320204 -0.884657
H 2.690693 -1.667761 -0.882499
H 1.074836 -2.216910 -1.431962
H -0.751856 2.557565 2.139813
H 0.371746 0.431136 -1.946024
H -0.771193 2.659082 0.295224
H 0.689495 2.103554 1.195543
H -1.482851 0.950064 -1.200220
H -1.949132 0.594829 1.176520