24
H15 C7 N1 O1
C 0.916982 0.211796 -0.433351
C -1.540809 -0.200154 -1.124573
C 3.248521 0.921937 0.157450
C -0.607398 0.100765 0.095670
C 1.938808 0.282620 0.656396
N -1.073806 1.253109 0.701759
C -0.823049 -1.127877 1.124856
C -2.958742 -0.596444 -0.883819
O 3.635678 -0.175551 -0.347322
H 1.578644 0.959468 1.518901
H -1.079860 -0.895634 -1.838979
H -1.786936 -1.110179 1.477138
H -0.468914 -2.029787 0.634469
H -3.461108 0.033614 -0.164996
H -3.599912 -0.593129 -1.832933
H 1.996378 -0.664300 1.187507
H -0.262822 1.755312 1.073848
H 3.187558 1.719304 -0.595778
H -0.136354 -0.876448 1.936827
H 3.907892 1.282958 0.933125
H 0.850769 1.093500 -1.013126
H -3.040582 -1.609705 -0.535960
H 1.119107 -0.608830 -1.063159
H -1.540076 0.873659 -1.663938