15
H6 C4 N2 O3
C -0.340185 -1.610003 0.981987
N 1.757996 -1.601129 0.203973
C 0.575366 -0.873392 0.256713
O 1.456773 -2.702911 0.824770
C -1.335338 2.076350 -0.466873
N 0.229761 -2.741571 1.414687
C 0.253766 0.366767 -0.427775
O 2.643293 -1.168557 -0.433415
O -0.858215 0.892431 0.076720
H 0.177863 0.342876 -1.554377
H -0.607918 2.901589 -0.405897
H -1.522586 1.978069 -1.544757
H -1.319500 -1.392585 1.345752
H -2.198427 2.472129 0.061973
H 1.087316 1.059929 -0.333487