17
H8 C5 N2 O2
C -1.495306 0.252746 0.858176
N -2.207826 -0.512226 -1.247594
C 0.921120 0.208296 1.162829
C -1.296166 0.023411 -0.640799
O -2.507441 0.313421 1.374734
C -2.262026 -0.463650 -2.675520
O -0.368252 0.373160 1.568444
C 3.085783 0.181928 1.938686
N 1.733874 0.309465 2.080567
H 3.490697 -0.513893 1.082808
H -0.398855 0.387072 -1.090163
H -3.237454 -0.174151 -3.002827
H -1.545318 0.296418 -3.108522
H 3.656424 1.100864 1.852741
H 1.060588 0.013419 0.126787
H 3.396403 -0.373707 2.813269
H -2.026245 -1.422588 -3.093624