24
H15 C7 N1 O1
C -1.102096 2.482176 0.082306
C -0.532154 -1.099570 0.359788
C -0.863970 1.576683 -1.175411
C -1.074090 -2.347420 0.934205
C 2.299869 -0.515792 0.169107
C -0.130600 1.347757 0.118860
N -0.484747 0.235464 0.975634
C 0.995230 -1.253642 -0.204800
O 0.055262 1.892651 -2.225742
H 2.300877 -0.138166 1.177205
H -0.810899 -3.170133 0.364833
H -0.690508 2.245852 -2.907930
H -0.627948 3.249374 0.593592
H -1.611739 -0.630777 -0.164813
H -1.450726 0.766225 -1.436989
H 1.192363 -2.319678 -0.216742
H -0.708642 -2.530161 1.934369
H -2.201637 -2.268305 0.956214
H 2.560937 0.390332 -0.457850
H 0.094497 0.006572 1.823330
H 0.946928 1.734586 0.233232
H 3.132292 -1.178219 0.146447
H 0.804574 -0.982957 -1.351326
H -2.093051 2.507078 0.272455