15
H6 C6 N1 O1 F1
C 1.465759 1.473608 -0.952824
C -0.396403 0.398944 -0.293291
C 0.214691 -0.646568 0.418072
N 0.116425 1.431859 -0.836734
C -2.567945 -0.542666 0.290395
C 1.683599 -0.530961 0.382617
F 2.369566 -1.475265 0.969702
C 2.306120 0.499045 -0.258497
O -1.809607 0.472341 -0.310201
H -3.599728 -0.318706 0.079191
H 1.909471 2.342343 -1.297991
H -2.289857 -1.599919 -0.160435
H -2.471991 -0.588163 1.406112
H -0.209252 -1.478822 0.845300
H 3.279137 0.562947 -0.281420