15
H6 C7 O2
O -2.141710 0.502419 1.951168
C -0.899044 -0.465213 0.257660
C -0.296216 0.327010 -0.946818
C 1.294056 0.771580 0.937551
C -1.034175 0.179422 1.436705
O -0.453042 -1.693746 -0.132910
C -0.528420 -1.160776 -1.466371
C 1.021449 0.605455 -0.545338
C 0.317934 0.574152 1.815827
H 0.308937 -1.480854 -2.211659
H 1.861327 0.589522 -1.233848
H -1.604920 -1.330067 -1.929834
H 0.509018 0.650142 2.942942
H -0.989910 1.167213 -1.199149
H 2.269373 1.104152 1.194016