17
H9 C5 N1 O2
O -0.235936 -0.704293 -1.554579
C -0.904931 0.060315 -0.461943
C 1.051051 -0.796103 0.794969
C -0.805663 1.518131 -0.781830
N 1.631794 -1.342084 -0.360799
C 1.007575 -1.098504 -1.405435
C -0.427080 -0.384140 0.891815
O -0.695676 0.572785 1.893994
H 1.501223 -1.296033 -2.420289
H -0.971658 -1.289886 1.211208
H 1.189322 -1.581539 1.591203
H -1.895202 -0.324276 -0.614156
H 0.180645 1.793992 -0.555732
H -1.551880 2.031051 -0.091425
H -1.080813 1.653844 -1.867477
H 1.696688 -0.022812 1.095220
H 0.172356 0.792671 2.245963