24
H16 C7 O1
C -1.359357 -1.470531 -0.970137
C 2.086866 2.725465 1.870245
C -0.984143 -2.903886 -1.234927
C 1.514252 1.537421 1.135608
C -0.395224 -0.644477 -0.075435
C -0.392748 0.836850 -0.561984
O -1.932474 -3.416746 -2.082062
C 0.231475 1.763037 0.494251
H -0.554027 1.856176 1.253868
H -0.776733 -0.747841 0.941714
H 1.522143 0.619625 1.782623
H 3.026932 2.523598 2.268808
H 2.058562 3.622219 1.250024
H 0.115018 0.886092 -1.425621
H 0.632301 -1.061297 -0.089931
H -2.383347 -1.362840 -0.599695
H 0.241480 2.795310 -0.100021
H -1.727159 -4.389600 -2.187562
H -1.409915 1.065866 -0.731533
H 2.243379 1.177198 0.339293
H -1.480829 -1.080126 -1.985052
H 1.383999 2.924164 2.667417
H -0.941564 -3.407449 -0.219854
H -0.015719 -2.931084 -1.635432