19
H11 C6 N1 O1
C 0.887218 -0.460511 0.346021
C -0.638721 0.464926 -1.639827
C -1.260343 0.904244 1.940702
C -0.380079 0.015678 -0.192835
C 2.142346 0.119204 -0.561457
O -0.678869 -0.091083 2.645855
C -1.229229 -0.824369 -1.116284
N -1.182210 0.899521 0.646036
H -0.772525 -1.727695 -1.391966
H -2.305227 -0.849752 -1.025399
H 0.987653 -1.502583 0.330860
H 2.074347 1.181003 -0.466602
H 3.063460 -0.265140 -0.101134
H -1.693818 1.659214 2.459157
H 0.134761 0.383344 -2.354021
H -1.325858 1.274271 -1.905560
H 1.051336 -0.154878 1.372324
H 2.023611 -0.207454 -1.510335
H 0.117373 -0.095809 2.939442