21
H12 C6 O3
C 0.740347 -0.185932 0.079175
O -0.212816 -2.625760 -0.123584
C -2.426347 -2.078520 -1.352567
C 0.558610 1.291272 0.360023
C 0.112925 0.150385 1.347544
C 1.645459 3.121282 0.777565
O 1.805315 1.843453 0.363014
C -0.887208 -1.890346 -1.094191
O -1.859043 -0.902860 -0.693461
H 1.699191 -0.794353 0.330539
H 0.756885 -0.244865 -1.049793
H 0.658913 0.124493 2.368327
H 1.529926 3.223792 1.800882
H -0.290227 1.800619 -0.164618
H -0.901392 -0.139556 1.415601
H -0.281602 -1.738351 -1.977464
H 2.699143 3.535919 0.538931
H 1.013149 3.730538 0.075018
H -0.628089 -3.494499 -0.054580
H -3.010458 -2.650980 -0.567050
H -2.630050 -2.141519 -2.339759