20
H11 C7 N1 O1
C -1.045648 0.360305 -0.279703
C -0.487414 -1.167673 0.821503
C -1.768611 -0.797129 0.204408
N 0.651541 -1.282834 0.026698
C -0.245760 1.356274 0.343823
C 0.707579 0.309783 -0.236576
C 2.159213 0.588556 -0.100414
C -0.165272 0.337453 -1.527537
O -0.303282 -1.228852 2.109416
H -0.320515 2.285353 -0.165105
H -0.185902 1.544074 1.516015
H 0.562490 -1.876498 -0.836546
H -2.514951 -0.547246 0.874175
H 2.732816 -0.223331 -0.264773
H -0.977176 -1.921473 2.354360
H -2.083606 -1.379511 -0.624284
H 2.381956 1.451872 -0.668972
H 0.355515 -0.124409 -2.325500
H -0.856554 0.857773 -2.083522
H 2.356034 0.821826 0.989776