19
H10 C5 N2 O2
O 1.344100 0.489501 -1.769909
C -0.882853 1.530202 -0.015538
C 1.743658 0.985621 -0.332064
N -0.702218 -0.419371 0.983935
C 0.579030 1.711278 0.029595
O -2.457354 -0.322166 -0.342848
C 0.233435 -1.478591 0.742340
C -1.461907 0.094955 0.075027
N -0.501659 -2.701394 1.042304
H 2.585860 1.612457 -0.472789
H -1.250927 2.040016 0.883917
H 0.580910 -1.557594 -0.318780
H 1.141796 -1.348695 1.397667
H 0.778783 2.738100 0.443336
H -1.369695 2.037950 -0.852105
H -1.074783 -2.550174 1.769186
H 0.430365 0.290071 -1.873896
H 2.130462 0.266239 0.385922
H -1.179184 -2.774469 0.219591