22
H14 C6 O2
C -0.867508 0.321689 -0.360747
C -2.017531 -0.511507 0.121835
C 0.751594 -2.434306 -1.186232
C 0.900085 2.061159 2.083580
C 0.177691 -0.871502 -0.960294
O -0.170086 1.974704 1.166624
C 0.222294 1.290400 0.003053
O 0.060003 -0.547732 -2.255881
H -0.044894 -3.069139 -0.864684
H 1.701934 -2.621079 -0.804479
H 1.182335 0.916087 0.086932
H -1.646984 -1.397596 0.600381
H -1.620791 1.236669 -0.608606
H -2.599821 -0.807250 -0.731457
H -2.629495 0.027048 0.823826
H 0.874202 -2.650262 -2.301593
H -0.070355 0.068067 -2.544102
H 1.270188 1.079403 2.391195
H 0.300842 1.982623 -0.784545
H 0.576567 2.524398 2.892524
H 0.759622 -0.980851 -0.006458
H 1.787239 2.550179 1.661024