15
H6 C4 N2 O3
C 2.120546 0.872854 -0.826832
C -0.744008 0.922402 1.065812
O -1.738330 0.452111 1.409907
C -2.014458 -0.851779 0.581149
C -0.937773 -1.382956 -0.262061
O -1.106596 -2.545283 -0.889897
N 0.186290 0.434695 0.214545
N 0.114649 -0.695105 -0.528866
O 1.220958 1.243098 0.148511
H -0.374578 1.839191 1.473521
H 2.601813 -0.191105 -0.693685
H -2.821774 -0.653948 0.041206
H 1.709896 0.860756 -1.739759
H -2.202658 -1.519057 1.384032
H 3.048037 1.537416 -0.774172