16
H7 C7 N1 O1
C 2.300207 -0.024368 -2.097015
C -1.541298 -0.902168 0.527653
C -0.891688 -0.278874 -0.605937
N -1.102217 -0.872752 1.699675
O 0.139357 -0.258988 2.094615
C 0.480596 0.257168 -0.222704
C 1.516317 0.119675 -1.269470
C -0.656735 1.177670 -0.434195
C 0.946212 0.096247 1.085518
H 1.992133 0.211228 1.382472
H -1.464185 -1.314201 2.571131
H -1.124117 1.606448 0.427982
H -1.040192 -0.720610 -1.611868
H -0.623297 1.831334 -1.262474
H -2.427339 -1.532311 0.424643
H 3.081444 -0.142050 -2.961083