17
H8 C7 N2
C -0.220921 -0.266201 -0.788502
C 0.227886 -0.985722 0.455897
C -1.067462 1.064139 0.942618
C 0.005680 -1.280711 -3.084569
C -0.115488 -0.781721 -2.035172
C 1.587488 -0.270709 0.810504
N -0.628404 0.965427 -0.541416
C 0.407049 0.674801 1.512783
N -0.311434 -0.437435 1.714816
H 2.134786 -0.803936 1.576768
H 0.755225 1.310404 2.390702
H -1.287953 2.098847 1.241131
H 0.151859 -2.081546 0.374683
H 0.104961 -1.557687 -4.096742
H 2.165561 0.263311 0.131764
H -2.086947 0.472269 0.947294
H -1.147488 1.313041 -1.157164