25
H16 C9
C 0.756819 0.026838 0.773783
C -0.750267 -0.453064 -0.475532
C -1.560249 0.323779 1.419993
C 2.244392 1.641083 -0.100127
C 1.722061 0.258830 -0.397172
C 0.121786 -1.408402 1.122395
C -1.628491 -1.035176 0.527785
C -1.071234 -0.465097 -2.029980
C -0.525688 0.784426 0.397446
H 3.345563 1.552474 -0.198762
H 0.071938 -1.516921 2.243714
H 2.486016 -0.630909 -0.333762
H 0.628313 -2.206398 0.665490
H 1.839123 2.389426 -0.786903
H -2.757573 -0.878074 -0.009399
H 2.037343 2.170401 0.812430
H -1.805654 -2.057266 0.668975
H -1.211822 0.438314 2.404919
H -1.735682 0.411994 -2.350933
H 1.392849 0.345648 1.753155
H -1.666658 -1.394118 -2.262395
H 1.406460 0.207993 -1.425871
H -2.445232 0.880145 1.341522
H -0.205336 -0.585537 -2.685076
H -0.531369 1.780941 0.003444