18
H9 C5 N3 O1
C -0.283797 0.498649 0.645267
N 0.951803 -1.863864 -1.864621
C 0.727262 0.860597 1.806986
N 0.862465 1.136743 -1.430150
C -1.595135 0.044192 1.034010
N -1.419590 1.419271 0.507283
C 0.069107 -1.274598 -0.986762
C 0.275614 0.158425 -0.753225
O -0.781393 -2.003454 -0.431641
H -1.579919 -0.537046 1.978740
H 0.944123 -2.849670 -1.982137
H -2.356598 -0.403004 0.520527
H 1.188457 0.685445 -2.281037
H 0.200439 1.101385 2.691619
H 1.235330 1.741124 1.508908
H 1.406258 -0.007545 1.991129
H -1.049828 2.201401 0.568345
H 1.694021 -1.353327 -2.227715