22
H13 C7 N1 O1
C -0.164868 -0.049863 0.657615
O -0.382613 1.644043 -1.230036
C -2.317158 -1.250202 -0.146306
C 0.764372 -0.753362 -0.952100
C -1.684897 -0.245451 0.780793
C 0.627238 0.728242 -0.566354
C 2.062192 1.292763 -0.580109
C 0.911814 -0.243210 1.630843
N 0.745473 -1.152152 0.455556
H 1.710153 -1.046680 -1.488596
H 2.170933 1.773142 -1.609030
H -3.388897 -1.404712 0.022496
H -2.139323 0.719350 0.690773
H 2.144676 2.171039 0.193012
H 2.916032 0.533404 -0.370786
H -0.126797 -1.044932 -1.595282
H -2.228695 -0.951495 -1.160125
H -1.775725 -0.664324 1.779988
H -0.337697 2.434213 -0.701865
H -1.852705 -2.239629 -0.177579
H 0.546865 -0.533720 2.617213
H 1.799593 0.283542 1.749858