17
H8 C8 O1
O 0.723788 1.327347 0.408489
C 0.273660 0.002597 -2.149915
C 1.175480 -0.478195 -1.206837
C 1.351058 -0.938164 1.260149
C -0.915988 0.656355 -1.321936
C -2.380674 0.509691 1.983791
C 0.857908 -0.141020 0.142517
C -0.467345 0.626184 0.161146
C -1.526890 0.551476 1.157240
H 0.269599 -0.166622 -3.129057
H -1.796762 0.088032 -1.553900
H -1.089134 1.756929 -1.679057
H 2.448233 -0.802809 1.357926
H 1.141544 -1.994780 1.170277
H -3.109705 0.581108 2.750958
H 2.162072 -0.977340 -1.574416
H 0.883168 -0.600819 2.222663