21
H12 C8 O1
C -1.035814 1.382534 -1.481970
C -2.373828 1.957091 -1.629642
O 0.583755 -1.801970 0.069214
C 1.435269 -1.719708 2.368391
C -0.970213 0.043550 -0.663325
C 0.431519 -0.466321 -0.565810
C 1.395622 0.209188 0.429366
C -3.549858 2.360057 -1.701136
C 1.668732 -1.340064 0.936349
H 1.452544 -2.816010 2.391331
H -1.539003 -0.679470 -1.271401
H 2.278208 0.796213 0.088811
H -0.558225 1.271414 -2.455965
H -0.418324 2.118079 -0.995372
H -4.532259 2.707319 -1.773998
H 0.567965 -1.383250 2.791900
H 0.903364 -0.522652 -1.538161
H 0.845843 0.782714 1.244516
H 2.236499 -1.380455 2.965875
H 2.565385 -1.676400 0.496466
H -1.387170 0.158119 0.294546