19
H10 C7 O2
C 1.039005 -1.423995 0.174233
C 1.416929 0.054931 0.436577
O -0.325219 -1.863802 0.297386
C -0.227171 0.134500 -0.970747
C -0.858210 1.047876 1.533173
O -0.674884 0.812324 -2.071115
C 0.149740 0.892159 0.395493
C -1.104390 -1.148655 -0.581942
C 1.199839 -0.495290 -0.954648
H -0.365664 1.640391 2.385448
H 1.783172 -2.201643 0.458343
H 1.954683 -0.606474 -1.795608
H 0.444245 1.936024 0.100736
H 2.297133 0.304021 0.991791
H -1.075612 0.051273 1.947901
H -2.075767 -0.829529 -0.103580
H -1.747352 1.581295 1.244229
H -0.536018 1.804502 -1.967561
H -1.294451 -1.689871 -1.520115