16
H7 C6 N3
C 0.297981 1.814444 -0.116831
N -0.351295 -1.946469 0.165251
C -0.199764 0.448930 1.309562
N 0.053286 1.812124 1.466410
C 0.086259 -0.960831 -0.638076
C -0.613680 -0.707397 1.987228
C 0.346486 -1.260842 -2.114786
C 0.129294 0.325297 -0.068427
N -0.697552 -1.872313 1.412912
H 0.163659 -2.268167 -2.326100
H 1.378156 2.143498 -0.359311
H -0.873699 -0.733165 3.078544
H -0.216185 -0.659114 -2.738519
H 1.426512 -1.062189 -2.346348
H -0.526063 2.500266 1.910482
H -0.403381 2.425914 -0.621987