16
H7 C6 N1 O2
C 0.171439 -0.936062 -0.230382
C -0.317662 0.458920 0.156430
O 0.949349 1.847551 1.658239
N -1.279271 -0.207026 3.437021
C 0.386239 1.023014 -1.186396
C 0.302525 -0.440296 -1.659454
C 0.079786 1.017060 1.483872
C -0.580843 0.404614 2.563598
O -0.666197 -2.119392 -0.091780
H 1.235694 -1.111872 0.246182
H 1.379172 1.416337 -0.933215
H -0.201985 1.747260 -1.772565
H 1.234905 -0.770418 -2.261955
H -0.733756 -2.184319 0.887676
H -1.429619 0.555513 0.042025
H -0.529798 -0.700847 -2.339305