18
H9 C7 N1 O1
C 0.332802 0.302585 -0.695041
C -0.004447 -0.114558 1.574275
O 1.321400 1.052891 -2.569439
C -0.633668 1.007712 0.239852
C 1.071891 -1.145045 1.450907
C -1.661684 0.782441 -1.072721
C -0.990537 -0.523893 -0.725061
C 1.444297 0.470471 -1.511051
N -1.273624 -0.184480 0.769611
H 0.824227 -1.939376 2.271506
H -0.573573 2.022155 0.664289
H -2.789852 0.738330 -0.856667
H -1.465305 1.294018 -1.972383
H 1.307776 -1.658095 0.467868
H -0.131317 0.316068 2.505676
H 2.289989 -0.136898 -1.067794
H 2.050858 -0.726297 1.740654
H -1.119246 -1.558050 -1.214469