18
H9 C6 N1 O2
C -1.228991 0.850708 -0.010299
C 1.501276 -1.063614 1.438302
C -0.868741 1.952690 -1.024575
C -0.410661 -0.351751 -0.148938
O -1.782850 -0.861770 -1.315862
N 1.245782 0.358400 1.600038
C 0.978300 -0.257643 0.310404
C -0.828598 -1.576600 -0.661638
O -1.992381 1.106380 0.854861
H -1.272612 -2.340158 0.041153
H -1.820753 2.434532 -1.301984
H 1.702066 0.043934 -0.629351
H 2.078681 0.865348 1.446835
H -0.155245 -2.198409 -1.340512
H 2.528221 -1.448689 1.377183
H -0.339556 1.615118 -2.014112
H -0.179497 2.615913 -0.620192
H 0.845575 -1.744343 1.998666