21
H12 C8 O1
C 0.057119 1.578473 -0.078409
C 2.514337 1.319299 -0.818928
C 0.149090 0.371396 -1.078393
C -0.687746 -1.795307 0.299618
C -0.976444 -0.342135 -0.279428
C -1.912568 -2.308937 1.085440
C 1.289813 0.668229 -0.162489
C -1.064559 0.817308 0.754144
O -2.522155 -3.290258 0.768641
H 3.153139 0.489676 -1.220015
H -1.925776 -0.414678 -0.821979
H 0.082256 2.587627 -0.304375
H -2.233618 -1.748303 2.048676
H 0.280688 0.282306 -2.152493
H 0.166239 -1.721793 1.021392
H 1.515751 0.075311 0.721898
H -0.822897 0.653287 1.789647
H 2.275402 1.962146 -1.734162
H 3.130517 1.926494 -0.136189
H -0.459497 -2.481709 -0.447302
H -2.009140 1.371571 0.744694