18
H9 C7 N1 O1
C 0.300302 0.274014 0.663162
C -0.997622 0.631341 1.440215
O 0.659607 -1.012870 1.058083
C 0.028573 0.247179 -0.912226
N -0.471555 0.924984 4.025631
C 1.320002 0.075488 -1.613843
C -0.696709 0.802359 2.889925
C 2.375942 -0.101617 -2.126820
C -1.031135 -0.808508 -1.310210
H -1.721868 -0.159897 1.371325
H 1.531323 -1.193045 0.667959
H 1.038856 1.054757 0.850321
H -2.022349 -0.613429 -0.859017
H -0.696368 -1.826323 -0.959227
H -1.464250 1.541354 1.039052
H 3.342172 -0.208624 -2.642819
H -0.401131 1.237098 -1.183025
H -1.093762 -0.864256 -2.398487