17
H8 C6 O3
O 0.709218 -2.836359 0.676150
C 0.279438 0.854922 0.592803
C -0.045246 -0.955782 -1.418245
C 0.917472 -1.703179 0.890656
O -1.031919 -0.170202 -1.874309
C -1.235045 -0.582213 -0.459834
C 0.217952 -0.570922 0.094225
C -1.177521 1.148589 0.147175
O 1.680655 1.268090 0.380802
H -1.316079 1.782361 -0.623987
H -1.891319 1.181951 0.893124
H 0.229675 1.010857 1.697528
H 1.811404 2.200450 0.566463
H 0.397915 -1.603719 -1.973544
H 1.589190 -1.232062 1.749217
H -1.979675 -1.337889 -0.199068
H 0.843873 1.545112 -1.139164