19
H11 C7 N1
C -0.745532 -0.367966 0.483664
C 1.443107 0.120581 -0.566706
C -0.735513 0.904415 -0.340922
C 0.766271 -0.233730 -1.865631
C -1.431550 -0.471548 1.831399
C 0.818381 -0.630369 0.665144
C 0.588485 1.480894 -0.682396
N -0.206259 0.904576 -1.786751
H 1.159295 -0.191315 1.613231
H -1.239552 -1.099568 -0.169923
H -0.726732 -0.511641 2.634384
H -1.911063 -1.456304 1.834475
H 0.877169 2.494863 -0.629106
H 0.322779 -1.286204 -2.063271
H 0.962084 -1.685235 0.637936
H 2.531950 0.242090 -0.527336
H -2.272289 0.275728 1.927582
H -1.605004 1.624271 -0.233728
H 1.403998 -0.113503 -2.762028