15
H7 C5 N1 O2
C -0.505163 -0.650168 -0.674201
C -1.709592 0.123565 -0.465707
C 0.456823 -0.006000 0.069768
C 1.879356 -0.412796 0.298212
O -2.899872 -0.172006 -1.126770
C -1.446229 1.104223 0.465647
O 2.221152 -1.429334 -0.551705
N -0.143311 0.919485 0.793806
H -0.358225 -1.530808 -1.336168
H -2.055770 1.896241 0.857551
H 3.108128 -1.668490 -0.405215
H -3.520173 0.426102 -0.837931
H 2.037866 -0.633960 1.388819
H 2.533884 0.439205 0.112275
H 0.401147 1.594741 1.411626