18
H10 C5 N2 O1
C 1.244297 -0.999766 -0.301949
N 3.012210 0.356305 1.094297
C -2.028108 1.148149 0.376597
C 2.260198 -0.294091 0.457797
C -0.041205 -0.075642 -0.667165
N 1.747835 -1.488999 -1.626012
C -0.843283 0.163543 0.647471
O -2.741240 1.275222 1.569113
H -1.174621 -0.691258 1.136571
H 2.155710 -0.663590 -2.163862
H 0.946810 -1.925134 0.219995
H -0.607967 -0.636840 -1.375899
H -0.150318 0.686106 1.359367
H 2.527430 -2.165525 -1.503053
H -1.715112 2.108572 -0.037304
H -2.262143 1.773930 2.248519
H 0.367725 0.809855 -1.113922
H -2.698209 0.619128 -0.320592