25
H16 C8 O1
C -1.693358 -1.039889 -1.027519
C 1.018731 0.285143 1.101842
C 3.229928 0.632370 2.338557
C -1.630203 0.830374 -3.086547
C -1.308526 -0.037265 -0.062303
C -2.124970 -0.627078 -2.533049
C 1.948652 -0.167339 2.313571
O -2.593039 -0.616309 -0.037830
C -0.329603 -0.460243 1.074296
H 1.344628 0.035121 3.212544
H 3.813620 0.446099 1.425815
H -1.709547 -1.350030 -3.182999
H -1.978262 0.867657 -4.019060
H 3.071040 1.697835 2.431030
H -0.570192 0.882713 -2.988506
H -0.862074 -0.289039 1.942173
H -1.407835 -2.080773 -1.058274
H -2.102460 1.559613 -2.474421
H 0.844512 1.338798 1.084774
H -1.170480 1.029145 -0.378889
H 3.891697 0.367275 3.188730
H 2.054156 -1.208274 2.231098
H -3.133681 -0.627165 -2.585180
H -0.103679 -1.523069 0.971563
H 1.501024 0.054364 0.118629