22
H14 C8
C -0.923063 -1.781666 -1.691655
C 1.821466 1.199814 2.545953
C -0.297425 2.441506 2.112821
C 0.384052 1.071958 2.116826
C -1.120536 -2.445698 -3.205689
C 0.028360 -0.654259 -1.689213
C 0.213896 0.461567 0.745842
C 0.170115 -0.011324 -0.400514
H 1.909843 1.568754 3.551033
H -0.097416 -2.843413 -3.551254
H -1.992630 -1.497422 -1.436303
H 0.137035 3.182204 1.415288
H 1.024193 -0.971275 -2.065534
H -1.788876 -3.263391 -3.189975
H -0.312676 0.122274 -2.418864
H -1.457853 -1.637575 -3.896643
H -1.390646 2.362470 1.822834
H 2.363485 0.219945 2.494302
H -0.319285 2.875781 3.098238
H -0.106041 0.353183 2.773300
H -0.619496 -2.573212 -1.005649
H 2.373496 1.819755 1.874916