17
H8 C7 O2
O -0.861648 1.185248 -0.046231
C -0.979995 -1.085346 1.123263
C -1.998589 -0.920193 2.160025
C 2.895156 1.903160 -2.051747
C 1.408163 0.200258 -0.682411
C -0.103795 0.284542 -1.001602
C -1.189614 -0.217815 -0.123403
C 2.234652 1.127641 -1.350779
O -2.666589 -1.759005 2.603870
H -0.937036 -2.148438 0.882517
H 0.013410 -0.775054 1.614642
H -2.161458 0.124953 2.535270
H 1.731894 -0.846912 -0.918799
H 1.501132 0.280332 0.406826
H -0.327013 0.498976 -2.018085
H 3.574950 2.610534 -2.533215
H -2.133601 -0.462868 -0.600125