19
H10 C7 O2
O -0.503858 1.157002 -0.596816
C -1.412327 1.277568 0.522951
C 1.674567 -0.579931 -1.668401
C -2.154158 -0.033317 0.835403
C 1.408326 -0.440290 -0.229472
C 0.661023 0.757249 0.194984
C 0.698026 -1.412606 -1.095543
C -0.314922 0.733584 1.486399
O -0.950830 -0.530880 1.631233
H -2.370191 -0.709077 0.078424
H -0.299218 -1.281722 -1.362878
H -3.019639 0.138908 1.521484
H 2.085163 -0.809846 0.502591
H 1.296843 0.192347 -2.383751
H 1.393276 1.596702 0.284702
H -1.933572 2.241604 0.638211
H 0.001993 1.127238 2.487969
H 2.756473 -0.912827 -1.970520
H 0.983028 -2.511691 -0.876952