17
H8 C5 N2 O2
C -1.237088 -1.662194 -0.498246
O 1.186948 0.502661 1.250565
C -0.133414 0.235646 0.900277
C 1.766718 1.713846 0.843671
C -1.071299 1.364131 0.820821
C -0.194307 -0.525231 -0.472077
N 0.618612 -0.226182 -1.448012
N -1.852413 2.192780 0.724567
O -1.258431 -2.287403 -1.777178
H 2.839761 1.691497 1.108113
H 1.729735 1.764556 -0.360596
H -0.383528 -2.648129 -1.946820
H -0.437969 -0.416465 1.723842
H -2.207850 -1.212637 -0.223309
H 1.275253 2.563926 1.272593
H 0.336202 -0.679986 -2.311784
H -0.976924 -2.370861 0.393566