18
H9 C5 N1 O3
C 1.600439 -0.429060 -0.956613
C 0.302422 0.052934 1.212016
O -2.070523 -0.028647 1.124667
C -2.042822 -0.383868 -0.152771
C -0.952679 0.579558 1.783372
O 1.571235 -0.376209 -2.377185
C 0.331646 0.272882 -0.311625
O -3.084430 -0.795669 -0.762712
N -0.837656 -0.353090 -0.851047
H 0.427592 1.263138 -0.544293
H 2.505680 -0.015493 -0.520902
H 1.805948 0.537701 -2.594650
H 0.516139 -1.007557 1.417940
H -0.877082 -0.424639 -1.836763
H -0.966047 1.660732 1.570989
H 1.209174 0.549986 1.701458
H -1.018656 0.430940 2.773196
H 1.579613 -1.533656 -0.675085