15
H6 C8 O1
C -1.665017 -0.116025 0.032843
C 1.700080 -1.132548 -1.247779
C 1.997367 -0.149907 -0.290437
O 0.582690 1.238233 1.162187
C 0.291036 -1.319655 -1.395453
C -0.325553 -0.415219 -0.361259
C -0.712728 1.447168 1.478076
C -1.819457 0.899668 1.020955
C 0.793365 0.283529 0.209432
H -0.249184 -2.097176 -1.969648
H 2.988067 0.209312 0.019325
H 2.393993 -1.707118 -1.867659
H -2.545989 -0.608590 -0.448448
H -0.755997 2.236260 2.298785
H -2.672650 1.232090 1.359079