21
H12 C8 O1
C 1.485980 -0.247563 -0.320122
C -0.097451 -0.221139 0.030490
C -0.632576 1.137725 0.358215
C -2.160755 1.382373 0.253271
C 0.166114 -1.228250 1.214198
C 1.655577 -1.303177 0.739817
C -1.125196 2.115910 -0.678866
C 1.845533 -1.646523 -0.735121
O -0.895071 -0.845686 -0.963642
H -0.997068 3.201671 -0.506489
H -2.790792 0.593014 -0.131127
H 0.123602 -0.703473 2.159326
H -1.199497 1.791529 -1.685560
H 1.136093 -2.304398 -1.305552
H 2.888757 -1.794000 -1.035281
H 2.516508 -1.549273 1.425880
H 2.125108 0.618661 -0.558532
H -0.775342 -0.336064 -1.814660
H -0.425490 -2.153706 1.176158
H -0.200900 1.539782 1.288893
H -2.643152 1.952561 1.088717