21
H12 C8 O1
C 0.233026 1.293700 -1.532178
C 0.686991 -1.376468 0.808079
C -0.752614 -1.452605 0.264732
C 1.210201 1.030232 0.716799
C 1.619026 -0.343231 0.085499
C -0.174072 1.448921 0.573219
O 1.867437 1.777152 1.458595
C -1.648092 -0.317753 -0.356597
C -0.947387 1.044243 -0.576346
H -1.742770 1.821537 -0.764128
H 1.154932 -2.413748 0.734518
H 2.662884 -0.458510 0.383914
H 1.590220 -0.563373 -0.985791
H -2.562379 -0.125292 0.367212
H 0.485908 2.245589 -1.813810
H 0.454789 0.488761 -2.154777
H -2.000933 -0.590294 -1.355224
H -1.302334 -1.915842 1.216664
H -0.843748 -2.240351 -0.437030
H -0.740572 1.747833 1.522254
H 0.749492 -1.100483 1.844380