18
H9 C6 N1 O2
O -0.537615 1.527569 2.227726
C -0.659266 -1.383275 -3.293526
C 1.011055 0.628718 0.604321
C 0.698942 -1.159621 -1.024624
O 1.846702 -1.666028 -0.910950
C -1.164919 -0.785538 0.392839
C -0.002128 -1.218735 -2.216059
N 0.193286 -0.377483 0.004313
C 0.307381 1.841817 1.069188
H 1.589318 0.124541 1.436138
H -1.085328 -1.505402 -4.236191
H -0.115944 0.831880 2.780311
H 1.009116 2.583416 1.379654
H -1.103134 -1.224866 1.418585
H 1.818813 0.862844 -0.154396
H -1.640210 -1.453135 -0.283226
H -0.366828 2.246626 0.316796
H -1.799230 0.126676 0.489086