12
H3 C3 N3 O3
O 0.403711 -1.738068 -3.036426
C 0.377152 -1.360343 -1.853806
C -0.254957 0.212707 -0.256481
O 2.081417 0.656034 0.347948
C 0.875580 0.616112 0.566265
O -0.318753 -0.241956 -1.488400
N -1.093001 0.839036 1.707009
N -1.404173 0.410750 0.598535
N 0.209047 0.973865 1.725896
H 0.840409 -1.910970 -1.116088
H -2.377870 0.186041 0.299510
H 0.661445 1.356813 2.506029