18
H9 C6 N3
N -1.210076 0.952686 -0.826439
C -0.192503 1.106514 -3.084064
C -0.799872 0.460384 0.408440
C -0.175543 0.744166 -1.647458
N -1.423040 0.364156 1.611683
C 0.766586 -0.951755 1.781120
C -0.805708 -0.681301 2.341068
C 0.349732 -0.105462 0.336911
N 0.866147 0.114875 -0.963521
H 0.782479 1.078168 -3.502302
H 0.915641 -1.721394 2.866329
H 1.159958 -1.807479 1.155873
H 1.711905 -0.025988 -1.357084
H -1.341324 -1.601575 2.154233
H -0.844130 0.503718 -3.620605
H -0.750420 -0.413787 3.392300
H -0.432675 2.164567 -3.226080
H 1.422835 -0.180503 2.179583