10
H3 C3 N3 O1
O -0.340159 -0.769890 1.206576
C 0.379988 0.378556 -0.411914
C -0.856631 -0.085962 -0.786455
N 1.991081 1.159775 -0.142871
N 1.189933 1.146518 -1.033013
N 0.991932 0.173388 0.703591
C -1.263365 -0.764194 0.239429
H -2.192874 -1.376323 0.449524
H 1.529851 0.010415 1.501336
H -1.429770 0.127736 -1.726215