17
H8 C5 N2 O2
C 0.752178 -1.113421 0.116146
C -1.276854 -1.739513 -1.276672
O 1.809205 2.083300 1.352901
C -1.120851 0.356477 -0.049181
O -0.914848 2.449731 0.711516
C 1.135105 1.144576 0.467838
N -0.377498 1.400724 0.511206
C 1.422683 -0.149571 0.837986
N -0.552139 -0.765812 -0.383938
H -0.574454 -2.543066 -1.595840
H -1.581761 -1.289405 -2.183809
H 1.068631 2.797556 1.359947
H 1.941490 -0.303917 1.669178
H -2.146156 -2.161970 -0.744895
H 1.117919 -2.058321 -0.114226
H 1.483580 1.394544 -0.570261
H -2.186235 0.498084 -0.107879