15
H6 C7 O2
C 1.759315 1.217831 0.121533
C 4.221829 1.917385 -0.140954
O -0.741547 -1.888412 0.872732
C 0.587694 0.893590 0.227444
C -0.790585 0.474410 0.329182
C -0.984569 -0.976574 -0.212191
O -2.794602 -0.526943 -1.530833
C -2.351436 -1.185499 -0.720496
C 3.056820 1.588227 -0.036432
H -1.425997 -2.022364 1.460760
H -1.427768 1.100793 -0.316667
H -1.153414 0.533702 1.358815
H 5.224297 2.169690 -0.229048
H -2.916668 -2.021967 -0.212111
H -0.263374 -1.273863 -0.971720