19
H10 C6 N2 O1
C 1.024889 -0.088005 0.993559
C -0.011041 0.789989 -2.009670
N -0.219102 0.101195 1.526214
C -1.195588 -0.902363 -0.440464
C 2.217970 0.082691 1.773032
N 1.228132 -0.438547 -0.264099
C 0.099954 -0.516314 -1.200200
C -1.384511 0.075869 0.726478
O 2.139178 0.466501 2.962604
H 0.308052 -1.291121 -1.929333
H -0.133877 1.627382 -1.280147
H -2.031795 -0.831011 -1.127143
H -2.213509 -0.306674 1.414598
H -1.695018 1.080214 0.411235
H 0.868832 0.994425 -2.510305
H -0.886433 0.759056 -2.689844
H 3.151820 -0.205681 1.274117
H -1.077995 -1.938126 -0.084936
H -0.189943 0.540526 2.454331