20
H11 C6 N1 O2
C -0.733074 -0.847627 1.608693
O 0.164315 1.354181 -2.408122
C -0.278511 -0.237069 0.311134
C 0.207470 -1.248527 -0.598989
C -0.835805 1.598556 -1.427194
N 1.392399 -1.678856 0.337647
O 0.733590 1.546876 0.509727
C 0.735653 -0.956951 1.464841
C -0.481976 1.176210 0.012604
H -0.487395 -2.113653 -0.755312
H 0.693802 -0.917711 -1.583299
H 1.532567 0.892187 0.486687
H 1.032754 1.713727 -1.925170
H -1.054843 -0.082568 2.366325
H -1.045820 2.638645 -1.477180
H 1.370355 -1.028011 2.315003
H 1.428882 -2.719558 0.433712
H -1.374681 -1.772888 1.542958
H -1.726697 1.033489 -1.799360
H -1.272948 1.649545 0.585280