17
H8 C5 N2 O2
C 1.260908 0.474707 -0.480628
C 0.511867 -0.747405 -0.756375
C -1.060599 1.088221 0.773948
N -0.896615 1.702947 -0.583994
C 0.326141 1.466499 0.245442
O 1.330055 -1.785169 1.235582
C 0.394020 -1.802188 0.362480
O -0.204277 -0.793936 -1.769056
N -0.713102 -2.519957 0.244222
H -0.760754 -3.289513 0.875561
H 1.598617 0.880785 -1.427193
H -1.106654 2.657053 -0.600427
H 2.140630 0.203241 0.206630
H 0.878020 2.189012 0.755387
H -1.466860 0.130768 0.761831
H -1.357567 1.760796 1.591949
H -0.873851 -1.615915 -1.435385