18
H9 C6 N3
C 0.884647 0.668693 -0.002954
N 2.035016 -0.073645 -1.734510
C 0.596860 1.403043 1.113580
N 0.693292 -0.541742 -1.758349
C -1.629104 -1.907498 0.249567
C -0.011454 -0.096165 -0.677011
C 1.628512 2.163362 1.354225
C -1.497705 -0.496269 -0.363214
N 2.096249 0.675662 -0.715880
H -2.019925 -0.421601 -1.354864
H -1.909644 0.232935 0.282477
H 2.270979 1.853386 2.081482
H -0.279448 1.525627 1.727723
H 0.505787 -1.320150 -2.404131
H -1.084315 -1.932145 1.213531
H -2.708847 -2.106935 0.411071
H 1.677948 3.103844 0.937983
H -1.248832 -2.730382 -0.360750