20
H11 C7 N1 O1
C -1.758140 1.417265 0.933096
C -0.078540 0.063767 -1.253413
C 0.766030 -1.674759 0.607659
N -1.131358 -0.821349 -0.870335
C -0.534478 -0.745248 0.442327
C -0.527608 0.580281 1.006646
C 0.627753 0.596294 -0.141402
O 1.524852 1.554739 -0.104460
C 1.432118 -1.040192 -0.687065
H -1.521104 2.439646 1.301925
H -1.015839 -1.724305 -1.347735
H 0.021519 0.561742 1.933274
H 2.468927 -0.775076 -0.582723
H 1.352592 -1.381763 1.498227
H 0.584952 -2.650080 0.488180
H 1.361442 -1.698794 -1.578639
H 1.337543 2.227893 -0.744469
H -2.018404 1.514786 -0.122794
H -2.589266 1.017425 1.468377
H -0.302990 0.537683 -2.246658