19
H10 C7 N2
N -1.272510 -1.188158 0.015209
C -0.344657 -1.039797 -1.102247
C -0.156720 -2.104962 -0.119946
C 0.957984 -0.982232 -0.243666
C -0.530019 -0.966353 -2.451432
C 1.119632 0.040986 0.860890
C -0.748007 1.899562 0.967393
C 0.632184 1.535498 0.500570
N -0.735902 -0.928235 -3.576534
H 2.155655 0.116449 1.095170
H 0.697513 1.656792 -0.583738
H 1.372900 2.241277 0.917830
H -2.058383 -1.611520 -0.441600
H 1.871310 -1.292383 -0.822498
H -1.050977 2.863337 0.541436
H -0.097513 -3.080910 -0.046047
H 0.579297 -0.280020 1.779211
H -0.838738 1.917054 2.077301
H -1.553041 1.203604 0.632709