20
H11 C6 N1 O2
C -0.171680 0.716155 0.149167
C 1.151461 -0.424572 -1.418159
O -0.827077 1.887560 0.373120
C -2.427768 -0.301939 0.610120
C -0.972943 -0.217655 1.086549
C 1.901628 -1.283113 -0.363945
N 1.214560 1.001561 0.410660
C 2.087818 0.202917 -0.544689
O -0.154722 0.128983 -1.169632
H 1.292411 1.938118 0.078084
H -1.515358 1.967154 -0.324413
H 2.972679 0.713518 -0.814803
H 1.256907 -0.664513 -2.455262
H 2.686594 -1.973061 -0.665156
H -0.554584 -1.223342 1.058423
H 1.444900 -1.608290 0.542800
H -2.887250 0.652287 0.357027
H -0.905435 0.175456 2.063986
H -2.516673 -0.890078 -0.305753
H -3.075506 -0.797202 1.331884