21
H12 C7 O2
C 0.653426 1.232156 1.780610
C 0.008451 0.300157 0.894920
C -0.443534 0.914365 -0.279506
O 1.163652 -0.243903 -1.799439
C 0.820404 1.047616 -2.407848
O 1.274949 1.362318 0.570969
C -0.137752 0.299448 -1.560849
C -0.287859 -1.135249 1.327702
C -1.240453 -1.977844 0.511404
H -2.223116 -1.497971 0.432963
H -0.694249 -1.033917 2.388376
H -1.352142 -2.943607 1.009272
H 0.520686 1.210523 -3.475817
H 1.209733 0.839570 2.546036
H -0.928306 -2.161801 -0.513786
H -0.969767 -0.197662 -2.099070
H -1.151603 1.695378 -0.329674
H 1.430887 1.862908 -1.973611
H 1.494545 -0.046449 -0.469003
H 0.713283 -1.693206 1.403439
H 0.138766 2.167178 2.042888