16
H7 C5 N1 O3
C -0.769577 -1.644089 0.129698
C 0.279798 1.254351 1.184245
C 0.563011 -0.992798 -0.153961
O 0.301270 2.094524 -1.496015
C -0.220175 1.061808 -1.257526
N -1.321523 -0.406465 0.362331
O 1.103927 -1.135478 -1.370840
C -0.172272 0.350645 0.052735
O -1.162284 -2.755738 0.231959
H 0.221569 0.701243 2.125021
H -0.773122 0.393217 -2.081314
H 1.297300 1.625614 1.127650
H 1.318371 -1.211702 0.656000
H 1.970192 -1.379482 -1.408048
H -2.289836 -0.118125 0.754884
H -0.346625 2.162487 1.143159