20
H11 C7 N1 O1
C -1.339239 -0.626504 1.660129
C 0.670473 0.853380 0.885682
O 0.854554 -0.271918 -2.052491
C 1.362519 -0.817649 -0.884251
C -1.135295 0.210992 -0.763590
C -0.130928 0.741731 -1.782517
N 0.585810 -1.289940 0.188971
C 1.685680 -0.202243 0.366166
C -0.416893 -0.109630 0.502348
H 0.745289 0.936390 2.012097
H 2.680323 -0.422157 0.959777
H 2.074431 -1.537366 -1.221533
H -1.796347 -1.595735 1.368346
H -2.127429 0.124924 1.844018
H 0.482606 1.634523 -1.449946
H -0.611147 1.050616 -2.739224
H 0.778948 1.820440 0.390143
H -1.967825 0.946095 -0.637765
H -1.622349 -0.730077 -1.199812
H -0.773216 -0.715853 2.553495