19
H10 C7 O2
C 0.775657 -0.300809 0.819020
C -1.103437 -0.027678 -0.640469
C -0.986366 1.068332 0.281723
C 0.796527 -1.884527 -0.887666
C -0.048366 -0.958299 -0.139466
O 2.052835 -1.213461 -1.024933
C 2.176961 -0.592050 0.295587
C -1.880476 2.173968 0.480097
O 0.140979 1.010060 0.970718
H -2.095637 -0.422923 -0.673826
H -1.375797 3.079594 0.765069
H 2.729510 -1.267368 0.912016
H 0.919915 -2.851726 -0.360348
H 2.737430 0.358565 0.131252
H 0.445011 -2.151470 -1.891604
H -2.647207 1.982610 1.286041
H 0.686138 -0.800515 1.831056
H -0.834103 0.354397 -1.703827
H -2.489544 2.443344 -0.450435