19
H10 C7 O2
O 2.719164 -0.949071 -1.410248
C -1.092607 0.755072 1.568319
C -1.166754 -0.691466 1.153072
C 0.485363 -0.238091 -0.769394
C 1.502191 -0.888341 -1.675103
C -0.143380 -1.123471 0.338117
O 0.328670 1.220705 1.185234
C -0.395716 0.701612 -1.544709
C 0.936059 -0.106745 0.610043
H -0.359822 1.756026 -1.204514
H -1.492887 0.447677 -1.445368
H -1.303987 0.908301 2.622497
H -1.871550 1.325382 1.007341
H -0.141416 0.648815 -2.638175
H 0.830709 1.412298 1.964709
H -1.862427 -1.306432 1.640671
H 1.817284 -0.375025 0.987530
H 0.029514 -2.236746 0.197161
H 1.181575 -1.260540 -2.587189