21
H12 C6 N2 O1
C 1.560766 -1.237341 2.330169
C 0.758626 1.218124 0.037406
C -1.299698 1.130637 -2.122610
N 0.384893 0.171093 0.938861
C 0.352462 -0.354584 2.133616
N -1.055294 0.157552 -1.090739
C -0.618209 0.785540 0.118427
C -0.701378 -1.191692 -1.397841
O -0.558323 -0.285571 2.937263
H 1.534184 -2.212919 1.853029
H -2.015102 0.799851 -2.880768
H 1.707991 -1.439806 3.499169
H -1.082440 -1.478522 -2.339135
H 2.503955 -0.807896 1.997259
H 1.457813 0.896412 -0.745197
H -1.688917 2.126810 -1.667303
H 1.017097 2.232450 0.513543
H -0.996327 -1.891870 -0.614258
H 0.452044 -1.330019 -1.510068
H -0.314102 1.379632 -2.617274
H -1.400027 1.332118 0.626451