21
H12 C8 O1
C -1.569222 0.728747 0.169797
C -1.306587 -1.067652 -1.148413
C 3.110046 0.864865 0.394723
C -2.523570 -0.098181 -0.800975
C -0.522959 -0.414673 -0.032422
C 1.601393 0.979512 0.222109
O 3.666092 0.696512 1.476764
C 0.242697 -1.056214 1.125750
C 0.993729 -0.338381 0.101374
H 1.525989 -0.964426 -0.647889
H -1.270033 1.615118 -0.308974
H 0.219564 -2.104900 1.225878
H -0.965090 -0.823906 -2.145803
H -1.959958 0.952531 1.159724
H 1.252744 1.504112 1.142395
H 1.455181 1.665424 -0.633773
H 0.129478 -0.577165 2.112896
H -2.978823 0.436730 -1.627168
H -1.424310 -2.134917 -1.012910
H 3.664860 0.736158 -0.546934
H -3.341251 -0.599249 -0.226117