16
H7 C5 N3 O1
N -0.073507 1.032996 -0.498481
C 0.682495 -1.071463 -0.304976
C -0.669376 2.285676 0.011606
C 1.907370 -0.808932 -1.073148
O 1.951825 -2.816813 -0.288335
C -1.415423 -0.478246 0.863560
C -0.248876 -0.087447 0.035963
N 2.680732 -1.892578 -1.043265
N 0.729470 -2.272110 0.130126
H -2.324619 0.227225 0.719069
H -0.036147 3.018177 -0.376947
H -1.672847 2.417501 -0.343662
H -1.788452 -1.485372 0.624504
H -0.669253 2.244359 1.117879
H 2.123501 0.110414 -1.500313
H -1.176872 -0.423382 1.926445