18
H10 C6 O2
O 1.743356 -1.236329 0.424723
C -1.895384 -0.207489 -0.211559
C 1.463833 -0.381386 -0.806219
C -0.731522 0.824368 0.120609
C 0.532003 0.587804 -0.367495
O -0.573436 0.282951 1.542857
C -1.470609 -0.812367 1.172275
C 1.676119 1.199786 -0.510608
H 1.234567 -0.848843 1.144350
H 1.684399 1.952724 -1.336286
H -1.121253 1.817806 0.189943
H -2.268616 -0.855973 1.873615
H 2.307982 -0.709294 -1.478007
H -0.937140 -1.742273 1.093952
H 0.584319 -0.613889 -1.875644
H 2.327277 1.338237 0.341102
H -1.671872 -0.793723 -1.059872
H -2.884026 0.197858 -0.257740