19
H10 C7 O2
C 1.015450 -0.461904 -1.083588
O 1.027418 -0.981135 0.972933
C -1.785698 -0.078338 0.870439
C 0.264344 0.143090 0.153994
C -1.155312 1.335430 1.028038
O 0.147680 -0.843826 -2.127718
C 0.401058 1.445358 0.948135
C 1.543814 -1.563591 -0.260783
C -1.246133 0.620772 -0.213700
H 0.796422 2.241645 0.374029
H -1.726801 2.195783 1.379833
H -1.859327 0.898813 -1.121285
H 1.046497 -2.563707 -0.451081
H 0.887521 1.369936 1.909843
H 2.649378 -1.650900 -0.281508
H -2.864187 0.030890 1.206561
H 0.724256 -1.238463 -2.798691
H -1.578375 -1.175749 0.973866
H 1.712000 0.275901 -1.479329