20
H11 C6 N1 O2
C -0.624887 -0.200072 -0.699639
C -0.696688 2.043662 -1.260946
O -1.432995 3.196456 -1.225776
C 0.823247 -0.398661 -0.284757
C -0.244279 -0.926422 0.625700
O -0.547015 -0.254189 1.813691
C 1.855603 0.573030 0.330340
C -0.279754 -2.462330 0.796706
N -1.219885 1.074345 -0.524395
H 0.114034 1.967303 -1.901467
H -0.773223 -2.890258 -0.101123
H -2.184385 3.012338 -0.678818
H 2.492403 -0.019015 0.988433
H 0.666939 -2.882994 0.929620
H 1.301585 -1.122543 -1.088935
H -1.152742 0.482163 1.609810
H 1.335099 1.270751 0.909521
H -1.047945 -0.772595 -1.468244
H -0.883802 -2.621668 1.692357
H 2.498700 0.930727 -0.462105