17
H8 C6 O3
O -0.664042 -1.311368 2.067677
C -0.381668 -0.243974 -0.858639
C 1.337091 0.402886 0.504498
C 1.210238 -0.492616 -0.747364
O -1.127286 -1.284109 -1.371946
C -0.622769 -0.038608 1.666628
C -0.733929 1.218613 -0.752100
C -0.247670 0.418612 0.439870
O -0.895512 1.612176 -2.098537
H 1.724674 -0.076368 -1.695014
H 1.845741 1.344460 0.292883
H -0.491225 -1.939448 1.306675
H 1.439204 -1.570225 -0.546239
H -1.401612 2.084648 -0.154411
H 1.777500 -0.110098 1.374304
H -0.796898 0.788447 2.382699
H -1.971849 -0.802994 -1.811008