18
H10 C5 N2 O1
C -0.312938 -2.469156 0.953873
N -0.688049 0.281307 0.317989
C 0.356704 1.195887 0.341094
C 0.609716 1.826299 -0.871615
C -0.281587 1.719735 -2.073263
N 0.248681 -0.119083 0.679438
C 0.529688 -1.296065 1.377651
O 0.737932 2.139774 1.135580
H 0.517501 -1.105819 2.464447
H -1.219746 -2.232770 0.454065
H 1.692942 -1.507511 1.255325
H -1.621401 0.541290 0.072411
H -1.220772 2.328495 -1.960353
H 0.304177 -3.114964 0.219675
H 0.198022 1.936251 -2.954914
H -0.689931 -3.064474 1.821701
H 1.508446 2.292449 -0.992888
H -0.669393 0.648336 -2.240213