18
H9 C7 N1 O1
O 2.566970 0.836793 -1.506319
C -0.809332 0.691807 -0.161872
N -0.570980 -0.525956 0.758932
C -2.271528 0.375602 -0.495065
C 1.586337 -0.862671 0.265703
C 0.208528 -1.373470 -0.083420
C -0.067706 0.714351 0.941515
C 1.481958 0.560205 0.691604
C 1.954025 0.419076 -0.591421
H -2.836364 1.234362 -0.254684
H 0.009870 -2.423337 0.216218
H -0.382654 1.298335 1.773442
H -2.641833 -0.487355 0.146345
H -2.372148 0.101175 -1.577506
H 0.025772 -1.295740 -1.141550
H 2.184362 1.036632 1.438637
H -0.382406 1.204613 -1.128564
H 2.317098 -1.504394 0.707996