17
H8 C5 N4
N 1.901996 -0.612467 -1.535512
C -0.163092 -0.290670 -0.460158
C 1.197952 -0.459078 -0.426951
N 0.085274 -0.347943 -2.909397
C -0.668795 -0.212594 -1.769686
N 1.383639 -0.565295 -2.743429
C -1.059134 -0.239375 0.757380
C -1.151600 1.147452 1.429696
N 1.841298 -0.557873 0.811520
H 2.808415 -0.790887 0.609680
H -1.907742 1.102093 2.265234
H 1.859092 0.295672 1.306536
H -1.748723 -0.107714 -1.890013
H -0.696116 -1.062360 1.490275
H -1.432076 1.896236 0.654914
H -0.141023 1.374429 1.845311
H -2.109393 -0.569610 0.564609