20
H11 C7 N1 O1
C -0.577457 -0.918221 0.777221
C -0.621984 0.442867 0.172132
C 1.614792 1.859189 -0.680711
C 0.013609 -0.049925 -1.213147
C 0.911716 0.598432 -0.238337
C 0.733180 -1.184613 1.103086
C -1.753005 -1.613484 1.397200
N 1.630521 -0.370251 0.598158
O -0.987179 0.283563 -2.142469
H 0.752767 2.753159 -0.216134
H 2.583097 1.405501 -1.190893
H 2.220053 2.191686 0.207093
H -2.458333 -2.016250 0.638244
H -2.377764 -0.913017 1.962901
H 1.187604 2.102127 -1.737062
H 0.491130 -0.927168 -1.659671
H 1.032723 -2.033793 1.687031
H -1.454656 -2.371653 2.050828
H -1.307187 1.228133 0.284312
H -1.633630 -0.466299 -1.799787