16
H7 C6 N1 O2
C 0.892796 1.357388 0.016901
C -1.274088 -2.156505 -0.069511
O -1.146058 -0.398678 1.636617
N -1.707101 -3.157293 -0.352115
C -0.690017 -0.815110 0.290039
C -1.086453 0.240898 -0.737665
C 1.597780 0.094113 0.003815
C -0.304959 1.280076 -0.839915
O 0.678452 -1.005898 0.322037
H 1.995885 -0.152554 -1.074409
H 2.388358 -0.065655 0.709317
H -1.990491 0.069501 -1.277030
H -0.978884 -1.211538 2.135830
H 0.581797 1.605843 1.056109
H -0.562924 2.107353 -1.540966
H 1.605893 2.208077 -0.279052