16
H7 C6 N1 O2
C -1.067489 -1.067714 -0.300870
C 1.397155 -0.374942 0.063336
C 0.430420 -1.300350 -0.455876
C -0.738000 0.391775 -0.721994
N 0.648866 -0.175907 -1.202886
C 1.142845 1.114101 0.669458
O 1.889758 1.664045 1.290612
C -0.190692 1.508148 0.166776
O -1.600722 -1.258684 1.016184
H 2.316906 -0.713677 0.327048
H -0.817532 1.676770 1.080749
H -1.016482 -0.899191 1.705354
H -1.467631 0.732764 -1.429788
H 0.830617 -2.251952 -0.841284
H -1.637733 -1.491411 -0.999834
H -0.120280 2.446217 -0.366998