25
H16 C9
C 0.964152 0.605362 -1.305937
C -0.929374 -0.138806 -0.835552
C 0.432326 -0.819806 -0.810101
C -0.998140 0.925981 3.019381
C 1.040697 0.284803 1.642118
C -1.263396 0.257571 0.695701
C -0.259559 0.640950 -2.120102
C -0.559078 0.461851 1.677342
C 0.562159 -1.878724 -2.060700
H 1.221204 -0.659608 2.193104
H -2.119813 0.889307 3.123936
H -2.349515 0.361176 0.833652
H 1.692939 0.210400 0.780712
H 0.914680 1.533449 -0.656369
H -0.788409 1.580902 -2.326790
H 1.910034 0.566641 -1.724989
H -0.053896 -2.751100 -1.754266
H 0.507178 -1.473047 0.057049
H 0.349078 -1.733693 -3.130877
H -0.140884 0.254182 -3.120569
H -0.713294 1.996286 3.222502
H 1.596906 -2.125864 -2.042247
H 1.360344 1.382563 1.979761
H -1.828055 -0.669763 -1.193476
H -0.548260 0.298986 3.856712