21
H12 C8 O1
O -1.864152 0.597486 -0.964942
C 0.649468 -0.410565 1.226039
C 0.477874 0.557496 -1.040789
C 0.041130 -2.082553 -0.668837
C -0.171812 -0.711868 0.015022
C 0.459872 1.615103 -0.166384
C -0.738173 1.346258 -1.094096
C 1.162316 1.057011 1.144829
C -1.593583 -0.250490 0.184157
H -1.808257 0.278720 1.110050
H 0.098506 -0.577572 2.182946
H -0.364553 -2.817059 0.055054
H -1.015685 2.116164 -1.766183
H -0.640888 -2.082060 -1.572487
H -2.282295 -1.121357 0.125103
H 1.033219 -2.272487 -0.896733
H 2.253061 1.142367 1.028038
H 1.208798 0.432320 -1.886048
H 0.841112 1.615144 2.028466
H 0.765529 2.628850 -0.333882
H 1.488517 -1.060860 1.290712