18
H9 C7 N1 O1
C -1.693570 1.189473 -0.900205
C -0.444342 -0.658168 0.552975
O -2.599126 1.515599 0.150703
C -2.823652 0.434611 -0.691520
N 1.541599 -2.096396 -0.030926
C -0.443546 0.663403 -0.183973
C 1.746655 0.314158 0.533676
C 0.720006 1.232857 -0.137313
C 0.957083 -0.967548 0.342303
H 2.732237 0.372438 0.026429
H 1.011292 2.223254 -0.567626
H -0.644897 -0.506711 1.646577
H -3.493956 -0.015916 -1.036257
H 1.891847 -2.604637 0.878430
H 1.909321 0.491160 1.606656
H -1.569841 1.800746 -1.733544
H -1.092380 -1.391769 0.176030
H 2.295263 -1.996543 -0.632399