19
H11 C7 N1
C 0.901555 -2.446849 -0.665296
C 0.249453 -1.898444 -1.844886
C 0.906664 -1.340320 0.280181
C -1.652056 1.281463 0.414748
C 0.674768 1.388443 1.500546
C -0.075485 1.046694 0.202420
C 0.247556 -0.229717 -0.296853
N -0.120550 -0.619501 -1.613419
H 1.303416 -3.389290 -0.600231
H -1.975327 0.542523 1.198087
H -1.849513 2.276294 0.759112
H 0.109703 -2.411426 -2.763467
H 0.425233 2.369158 1.854144
H 1.710010 1.391707 1.281254
H 1.317890 -1.440411 1.276756
H 0.433725 0.663100 2.239819
H 0.182680 1.797766 -0.502678
H -2.166805 1.097133 -0.514223
H -0.622938 -0.078324 -2.206023