21
H12 C8 O1
C -2.198163 -1.128538 -0.975184
C -0.323488 -0.323313 0.617986
O -0.025481 -0.850865 -1.821322
C 1.169223 -0.449199 0.857444
C -0.105856 1.200901 1.011502
C 1.531461 0.922642 1.434359
C 0.587207 1.967157 -0.094306
C -0.771519 -1.161943 -0.622016
C 1.715175 0.737424 0.095800
H -2.401482 -1.924878 -1.766585
H -2.446204 -0.101552 -1.262509
H 0.706803 -1.331718 -1.769580
H 0.203125 1.886445 -1.052070
H 2.501473 0.778575 -0.663201
H -0.495106 -2.213790 -0.284555
H -2.861350 -1.407532 -0.060767
H 1.594350 -1.354312 1.220650
H -0.941050 -0.690956 1.401495
H -0.888435 1.613817 1.585187
H 2.619455 0.844399 1.902505
H 0.829857 2.987249 0.245200