18
H9 C6 N1 O2
O -0.026697 2.252451 1.742334
C -0.911668 0.784042 -0.549369
C 0.933644 -0.090948 -1.740250
C -0.749180 -1.073119 1.265642
C -0.066358 0.093143 0.503226
N -0.559745 0.056415 -1.863815
C 1.206924 -0.406405 -0.262479
O 2.165167 -0.998415 0.177525
C 0.415191 1.066369 1.608787
H -1.585357 -1.482183 0.648874
H -1.168342 -0.754924 2.232334
H -0.064488 -1.933946 1.428690
H 1.447766 0.871394 -2.002736
H 1.328462 -0.848217 -2.376182
H -1.014279 -0.740937 -1.910525
H -1.986590 0.657291 -0.329278
H -0.626003 1.815484 -0.711820
H 1.261592 0.732507 2.139057