20
H11 C7 N1 O1
O -1.573411 -1.201596 0.666249
C -1.731031 -2.471152 0.034241
N -0.895689 1.036373 0.165427
C 0.143930 0.763617 1.063796
C 0.988995 1.934633 -0.853527
C -0.120911 0.859378 -1.040983
C 0.392270 -0.451825 -0.597575
C -0.278410 -0.713484 0.638258
C 1.472029 1.452395 0.474494
H 1.187521 -1.018498 -1.030632
H -1.559206 -2.554885 -0.989256
H 0.522474 2.979550 -0.827859
H -0.054963 1.052800 2.093461
H -0.692526 0.868367 -1.956871
H 1.730285 2.271700 1.180851
H 0.325017 -1.458296 1.425215
H -2.799377 -2.823985 0.150143
H 2.330642 0.788747 0.451093
H -1.146004 -3.266396 0.555149
H 1.758369 1.952616 -1.601716