25
H16 C9
C -0.244536 2.519316 -0.972280
C 0.446304 1.491274 -1.738104
C -0.279696 -0.868866 0.561817
C 0.229753 1.254837 -0.287740
C 0.488249 -1.979334 -0.099277
C -0.800886 -2.745764 0.106509
C -1.103852 -1.863084 1.371403
C -0.921818 0.254409 0.026535
C 1.318794 1.339671 0.821417
H -0.063797 1.022027 -2.510489
H 2.363625 0.993283 0.147812
H -0.559555 -2.259805 2.297472
H -1.455233 -0.028577 -0.933630
H 1.783506 2.343310 0.762527
H 0.267148 3.394683 -0.824541
H 0.812235 -1.737940 -1.106439
H 1.483703 1.696759 -2.076934
H 1.530103 0.400720 1.461168
H -1.562759 -2.650171 -0.643849
H 1.304472 -2.288607 0.518101
H -1.672586 0.683523 0.522590
H -2.144007 -1.629312 1.627211
H -0.582892 -3.768909 0.277887
H -1.279613 2.735016 -1.093235
H 0.643317 1.691588 1.784032