15
H7 C4 N1 O3
N -0.339627 -1.772749 1.062579
C -0.119506 0.546986 -0.166963
C 0.446572 -0.636126 0.649678
O 1.314672 -1.088721 -0.402625
C 1.047735 0.039592 -1.256041
O -1.407821 2.543193 -0.000630
C -0.597475 1.774349 -0.575407
O -1.355785 0.606051 1.387642
H 1.834669 0.775892 -1.379149
H -1.549224 -0.036958 1.294379
H -0.319661 2.077499 -1.527842
H -0.938976 -2.042662 0.385992
H 0.355083 -2.419202 1.302568
H 0.581589 -0.207769 -2.245369
H 1.047740 -0.159376 1.471164