21
H12 C8 O1
C 0.190330 1.631233 0.926842
C -0.068892 0.254801 0.342927
C -1.512362 -0.282071 0.395281
C -1.418474 2.012455 -0.736470
C -0.589691 2.573463 0.401137
C 0.955704 -0.840768 0.482430
O 0.830088 -1.683401 -0.626882
C -0.984699 0.532886 -0.773116
C 1.819129 -2.718529 -0.525754
H -2.204905 0.227536 1.092175
H -0.646906 3.630626 0.668924
H -1.238406 2.569580 -1.691865
H -0.784870 0.119607 -1.741773
H -1.603235 -1.307407 0.183321
H 1.620245 -3.376427 -1.401904
H 2.766863 -2.299842 -0.604776
H 1.949304 -0.281002 0.495471
H -2.462137 2.165209 -0.542449
H 0.823159 1.784720 1.811888
H 0.847811 -1.392246 1.443524
H 1.711947 -3.320434 0.401065