22
H14 C7 O1
C -0.166525 -0.371015 0.520772
C -1.302277 0.174610 -0.275770
C 1.018316 0.551651 1.149721
O -1.547662 1.343424 -2.429415
C -0.711133 -1.237222 1.630319
C 0.861581 -0.908263 -0.545611
C -0.840638 1.449981 -1.148559
C 1.973400 -0.025867 -0.035256
H -1.129912 0.461972 -2.899666
H 2.290392 0.854872 -0.674977
H 0.673020 -0.860571 -1.631219
H 0.018858 -2.057662 1.780228
H 1.047203 -2.034948 -0.365702
H -1.577464 -0.634802 -0.982964
H -2.112024 0.480896 0.339588
H -1.640490 -1.679169 1.423569
H 1.371228 0.150240 2.080422
H -0.746733 -0.645174 2.559152
H 0.785130 1.558514 1.148131
H -1.282996 2.342759 -0.669356
H 2.843367 -0.525689 0.299610
H 0.175306 1.611444 -1.273018