15
H7 C5 N1 O2
C 0.013294 0.476272 -1.135236
C -0.434739 -1.266077 0.600300
C 0.901205 0.934046 1.432369
C 0.491345 0.009908 0.347557
O -1.223912 -0.147012 -1.423704
C -1.115890 -0.096801 -0.069038
O 0.785079 0.631377 2.613444
N 1.131093 -0.282863 -0.953925
H -0.617845 -1.423502 1.562696
H -1.924730 0.349634 0.548015
H 1.180716 1.994705 1.127342
H 0.166686 1.430237 -1.726179
H -0.239181 -2.133859 -0.046920
H 1.974425 0.358972 -0.903872
H -1.087551 -0.835050 -1.972827