19
H10 C9
C 0.323383 1.839602 -0.561424
C 0.751989 1.665696 1.579731
C 0.441687 -0.268417 0.790813
C -0.970176 -3.105761 -1.837017
C -0.446079 0.766248 1.444587
C -0.491640 -2.076366 -0.956165
C 1.267172 0.993618 0.318004
C -0.374204 2.029885 0.770760
C -0.067221 -1.257123 -0.232877
H -1.192084 2.857681 0.971870
H -1.589321 -2.655621 -2.641612
H 1.213163 2.053243 2.464981
H -1.629324 -3.813468 -1.352209
H 0.782219 2.738424 -0.925742
H -0.133774 1.320517 -1.351199
H -1.178705 0.493514 2.221845
H -0.147835 -3.655206 -2.314287
H 1.054753 -0.807329 1.534594
H 2.386012 0.880887 0.075367