22
H14 C8
C 1.189852 1.740708 -0.752173
C 0.406464 0.396099 -0.534057
C -0.599638 0.858543 1.751310
C -0.841746 0.532782 0.295384
C -1.450194 -0.932240 0.138823
C 0.686261 -0.586227 -1.680294
C -0.216364 -1.770024 0.295119
C 0.925961 -0.976951 -0.230512
H -1.504601 1.292529 -0.159526
H 1.556886 2.096061 0.135459
H -1.984377 -1.008032 -0.768384
H -2.105218 -1.110491 0.964033
H 1.558884 -0.401961 -2.253384
H 0.567093 2.489568 -1.316767
H -0.040022 0.102057 2.332367
H -0.015088 -2.103097 1.309065
H -1.588069 1.012400 2.268106
H -0.152958 -1.007204 -2.144814
H 2.080634 1.484078 -1.396334
H -0.344273 -2.767751 -0.301321
H -0.031928 1.733148 1.861152
H 1.902434 -1.073985 0.186723