19
H10 C7 O2
O -1.964532 1.043767 0.318728
C 1.564768 -0.844374 -0.511039
C 0.683352 -0.177140 -1.548354
C -0.482918 -0.725202 0.761501
C 0.182333 0.515019 1.100402
C -0.834946 1.579826 0.954685
C -1.543415 -0.159341 -0.285543
C -0.611113 0.199900 -1.433823
O 0.682958 -1.643355 0.454650
H 2.167405 -1.654568 -1.009083
H 1.163888 -0.077629 -2.484315
H -2.322564 -0.750812 -0.535452
H -0.436098 2.445068 0.362331
H 1.040071 0.583162 1.696431
H -1.032525 -1.136438 1.573714
H 1.541461 -1.840610 1.050883
H -1.069745 1.968513 1.926486
H -1.033476 0.815985 -2.222518
H 2.305108 -0.141751 -0.169702