17
H8 C7 O2
O 0.286348 0.897209 -1.512323
C 0.583451 0.071693 1.600074
O -2.020921 -1.692884 -1.975569
C 1.413474 0.217072 -0.847436
C -1.025276 0.084185 0.394244
C -0.919779 -1.265628 -1.826243
C -0.548473 -0.116606 -0.992957
C 0.382371 -0.340965 0.210678
C -0.580842 1.127289 1.372301
H -1.251137 1.223113 2.240981
H 1.554646 0.506424 1.926268
H 2.110061 0.871556 -0.533960
H 0.272353 -0.756708 2.321543
H -1.844205 -0.684745 0.698603
H -0.055170 -1.629989 -2.456247
H 1.875120 -0.555228 -1.560040
H -0.232062 2.044199 0.940066