13
H7 C4 N1 O1
C -0.089700 1.073147 -0.340840
C 0.897713 -0.006144 -0.819528
C -0.734463 0.463365 0.875460
C 0.325257 -1.301222 -0.304754
H 1.031504 -0.067967 -1.895322
H 0.427796 2.052479 -0.109631
H -1.044141 -1.711922 1.234329
H -0.826305 1.285908 -1.122324
H 1.912760 0.113471 -0.394144
H -0.197765 0.819156 1.816652
H -1.736798 0.700299 0.977541
N -0.560513 -0.978184 0.698303
O 0.594658 -2.442380 -0.615730