17
H8 C7 O2
O 3.395991 10.597238 11.925681
C -6.460738 19.233719 -6.071916
C 7.369614 -3.092492 15.235696
C -5.904819 -21.376328 6.461277
C 0.871960 -16.035124 -18.262232
C 3.372273 -8.207467 -13.025753
C 26.014359 -11.650568 10.941220
C -6.918112 3.042497 -2.072442
O -10.051582 -3.322508 1.380206
H -2.066476 6.934346 -2.065965
H -8.939823 13.828190 -6.199090
H -10.588753 -19.553247 3.449984
H 11.091222 -5.248211 -2.629336
H -9.296696 -5.028732 5.164344
H 15.487126 -12.327401 2.359514
H -9.156775 17.726931 -18.274139
H 1.781286 34.479195 11.682918