22
H13 C7 N1 O1
C 9.479257 0.536252 -12.505451
C 3.478014 13.516125 1.955397
C 1.427768 -21.431572 -4.862689
C 1.899558 14.169100 14.915510
C -6.719016 5.634217 12.165067
O -15.781336 -6.124514 -9.397548
C 8.699575 -6.601858 12.113648
C -11.974917 11.362370 -26.653725
N 8.310638 12.992296 -7.270706
H -13.903685 -3.765125 1.498936
H -6.623010 6.204569 -12.203207
H 12.011704 -10.739065 8.975006
H -2.728839 -5.075065 -0.255499
H 6.878449 -24.662579 2.873155
H 17.168152 -7.039364 -14.473102
H -11.342301 21.744349 8.047268
H 1.870533 -3.754294 -0.519865
H -6.490459 8.298604 8.881055
H 9.454277 -2.963143 11.329192
H 0.435258 5.325602 -0.412694
H -21.311487 -6.725022 -11.058571
H 15.761855 -0.901860 16.858833