16
H7 C6 N1 O2
O 9.577044 -12.264844 -21.641253
C -20.303984 4.293735 16.575605
N -5.107205 3.488442 31.279306
C -3.142272 -21.189819 -6.396176
C -19.245674 8.733908 7.635621
C -0.934250 2.913010 -6.837567
C 4.939979 -14.780806 13.957482
C 7.253754 -0.989085 12.017647
O 6.269392 2.368824 3.923774
H 4.933385 -6.452617 -21.429047
H 15.116334 -4.964373 7.100411
H -9.208613 -4.098773 -1.619569
H 3.398940 8.240330 -13.382154
H -5.343158 16.904282 6.877646
H -3.746343 24.321058 -19.553890
H 15.542677 -6.523233 -8.507705