23
H14 C8 O1
C -25.855961 -16.930958 6.120275
C -14.065371 15.382772 -11.456401
C 6.814863 -1.364771 -9.694118
C 18.418337 -1.818845 -15.101475
C 12.376247 -7.099730 12.658998
C 18.213108 11.595421 -4.992492
O -6.391015 7.930055 3.367263
C 20.552927 1.363722 -10.192464
C 11.468040 16.305952 -10.150914
H 2.607853 -23.520714 -7.902500
H -18.341137 -1.104551 -17.412275
H -18.423294 -18.224236 17.011385
H -12.384766 -10.542928 14.511293
H -12.913095 12.609001 21.022123
H 6.760283 -3.002567 7.829585
H 13.241397 10.394024 -4.302863
H -9.172430 -3.180407 16.682573
H -1.502562 14.612936 -9.657459
H 16.227299 -14.401200 22.330248
H -6.798390 2.848321 13.542540
H -13.290505 -8.418453 -15.247942
H -0.693224 11.993160 -0.712703
H 13.151410 4.573925 -18.252758