18
H9 C7 N1 O1
C -0.666142 16.701263 20.763140
C 18.190094 2.984138 9.292511
C 7.957658 3.936580 7.563409
C -12.832448 3.493769 24.112766
C -12.577074 -1.384862 1.139669
O 16.641645 -21.869047 -6.714740
C 16.248919 -0.342776 3.542454
C -5.666716 -7.593426 14.961245
N 10.694988 -3.361168 -12.275486
H -6.684149 -17.544809 12.626628
H -5.573192 18.779095 7.599145
H -2.164137 -17.530186 -16.949938
H -18.660629 15.824959 -26.506876
H 8.140471 -0.622979 -26.420782
H 14.848071 0.617737 -11.882205
H -27.305250 7.297820 -20.198790
H 4.225640 -11.668315 -2.493508
H -4.817789 12.282160 21.841249