13
H4 C4 N2 O3
O 13.295274 2.815594 -18.928902
C -13.350051 23.824917 2.485102
C -0.259802 -15.348647 3.848241
O 1.939457 -1.785859 5.066949
C 7.607265 25.407967 -23.462561
N -14.944593 3.793856 -3.924621
C 29.470913 3.963445 4.991862
N -2.067483 -10.977082 -3.057073
O 3.807608 22.697123 36.511040
H 7.170394 24.244007 -11.876380
H -1.424551 -47.294621 -14.215100
H -8.165353 -12.367321 5.029350
H -23.079046 -18.973398 17.532101