18
H9 C7 N1 O1
C 27.385263 10.895290 -4.150879
C 27.958393 -10.942860 17.501209
N -23.461458 -4.531801 19.297167
C -18.908453 8.998804 -12.272373
C 5.147137 26.425632 14.133366
O -10.100041 -11.536391 -11.295979
C 23.185417 -7.814539 3.750231
C -0.949614 -10.866539 -4.498003
C 8.930954 -2.444941 19.804441
H 8.400978 19.190563 -4.848414
H -25.440662 -3.851393 2.272386
H -4.046390 4.477509 -9.844283
H 0.457383 4.615385 -5.487195
H -14.881233 -2.501132 3.464607
H 3.344957 -5.309428 -13.751646
H 16.842619 -17.672791 1.323365
H -22.027729 -6.296942 -12.050135
H -1.837572 9.165638 -3.347908