23
H14 C8 O1
C -20.894587 -12.229719 25.068083
C 9.732320 -23.880581 19.966957
C 6.531984 -16.853292 -15.627653
C -8.584116 -29.466721 0.787600
C 2.835310 -5.468032 9.618910
O 6.024303 -11.757136 -34.241062
C 18.573042 -4.056479 -0.821650
C -2.415299 14.190148 -8.412210
C 8.821421 19.986841 14.239861
H -38.249886 -29.990261 -6.969409
H 18.640940 1.577648 -22.764345
H 7.981928 37.568256 -6.167760
H -15.742671 40.366871 -8.866855
H 16.204544 -20.121780 -5.541582
H 7.258897 31.256657 -2.693346
H -0.851280 -10.143822 7.084776
H -25.276693 12.482020 -28.960598
H 5.372362 18.122595 15.886667
H -13.394588 8.695020 18.160622
H 3.813649 14.186399 11.039885
H 14.530961 -7.211682 2.165171
H 3.469516 -4.883204 -12.527802
H -4.382162 -22.369640 29.575632