17
H8 C6 N2 O1
C -7.404895 11.037411 5.234235
C -33.973038 -9.440274 20.825695
N 17.467810 -1.090701 4.873105
C -20.380856 20.355499 8.992392
O 13.868789 2.749786 -11.609315
C -12.315558 -25.553865 -4.845805
C 2.664256 -4.317194 32.527355
C -6.038468 -0.414434 -13.118495
N 21.035461 3.028566 -10.961120
H 5.716195 3.393642 12.459564
H -17.402014 2.418853 -27.583275
H 30.823700 -22.192944 -13.501778
H -3.428262 -7.683791 3.786471
H -7.152933 6.819577 -10.433580
H 5.391982 0.095721 15.968760
H -0.140024 14.148859 -9.359942
H 11.267966 6.645322 -3.254270