18
H9 C6 N3
C 11.645236 0.538822 7.499888
C 22.829767 19.532333 2.893028
N -14.867450 -3.477137 14.470569
C 3.664676 -14.163111 7.931171
C -7.270477 -18.186094 13.467982
N -2.188362 -2.340971 -15.508047
C 5.674136 8.990688 -24.008749
C 6.981011 -20.466156 3.609267
N 15.696947 6.093760 -16.614902
H 9.543803 14.855935 -12.898244
H -0.482806 3.335436 5.197822
H -3.829410 14.431491 -10.349247
H -5.086398 18.375841 17.956219
H 6.736086 -12.477824 13.245779
H 1.469266 1.857421 -2.766222
H -12.470902 -9.082162 4.616381
H -25.369473 -10.354052 1.272714
H -12.675740 2.535733 -10.015375