23
H14 C9
C 1.378814 -19.146391 2.384281
C -6.042832 8.325025 6.892343
C -19.796310 7.350650 30.444691
C -1.481141 -7.651185 -4.333414
C -16.885283 3.164734 11.453763
C 8.526977 5.154298 0.260624
C 5.263747 11.667769 12.181084
C -29.152109 -19.516916 -0.001124
C 1.820293 -12.334790 -25.922039
H -0.994773 7.710629 -14.277741
H -6.739744 -8.186952 -1.417391
H -7.926255 15.499318 20.506641
H 10.275511 3.716360 -11.539163
H 14.537904 -34.322876 4.888108
H 17.123955 4.051570 17.862696
H 19.712484 3.943464 -8.410877
H 1.703961 16.329348 -11.673942
H -1.294726 19.323460 -20.542149
H 3.924193 -6.910037 11.909030
H 4.224158 0.366738 -2.254276
H 12.505547 -13.302700 -0.411998
H -2.810421 0.141635 -16.774702
H -7.874043 14.626752 -1.224487