17
H8 C7 O2
C -10.371714 22.485348 13.300675
C -22.859921 -34.801445 8.141243
O 10.784309 13.279075 15.708288
C 8.765268 12.386923 8.223716
C -4.449953 17.254230 -25.197121
O -10.247748 -0.942458 -7.281282
C -15.465831 5.323524 1.355433
C 10.988904 -1.040008 -10.774862
C 20.411892 -18.201221 19.661215
H -14.815022 -1.157601 -17.060772
H 9.741894 -4.852024 4.755343
H 10.153354 16.003208 -1.386880
H -17.393955 -2.587193 3.294472
H 7.509058 0.977682 2.030413
H 26.297297 -22.780725 -2.744977
H -11.405808 -4.688437 -31.919342
H 2.357913 3.341135 19.894463