14
H5 C4 N3 O2
C -24.254511 10.700125 -0.426459
N 3.956106 -0.445658 9.465338
C 11.244650 12.201444 -4.005759
O -9.090597 -8.771968 15.571423
C 0.180842 1.888878 8.135181
N 29.937605 2.841349 2.165447
O -7.817340 13.657695 -1.821430
C 11.370899 -10.688582 -41.892445
N -9.402475 -15.006001 -4.460534
H -9.617106 22.404701 8.279099
H -6.129467 0.163635 11.043664
H 17.737368 1.160940 -14.121768
H 11.923161 -23.508739 4.222793
H -20.039249 -6.597852 7.845479