21
H12 C7 O2
C 4.856239 1.016000 -4.312322
C -14.991943 -3.284041 -10.606691
O 2.324949 -14.656857 17.347660
C -14.026568 6.148292 0.059386
C 8.579329 -14.911377 -16.903496
C 20.029825 -6.710290 -29.225756
O 6.131656 21.678719 25.405966
C -9.018054 -7.855889 1.883034
C -9.788310 5.032991 -17.467522
H -23.435974 -1.494601 10.297040
H 7.527881 11.857954 14.911041
H 18.444107 3.989986 23.983322
H -1.054966 -16.808838 -17.084011
H -19.283598 -19.840815 -19.040190
H 33.935692 -12.674846 2.138745
H -8.225935 5.819026 2.389173
H 11.149576 8.719347 -0.490005
H -7.472256 -17.061031 3.867666
H 19.356941 6.601728 -7.147151
H -23.880527 38.713680 -9.326088
H -1.158097 5.720963 29.320148