15
H6 C6 O3
C -18.994596 0.767102 0.058601
C 10.429564 -10.166958 3.148253
C 13.423482 1.763170 3.177773
C -4.827027 -4.656782 -17.658968
O 1.118775 -28.346930 11.229138
C 2.520908 28.479658 6.147812
O 8.468900 5.719589 -14.106931
C 13.097753 13.371325 -9.760770
O 4.382915 14.134423 8.228560
H 3.899889 -26.604326 -10.509607
H 3.050040 7.125955 12.024605
H -20.158539 -7.842953 2.078068
H -3.793807 5.842116 1.334300
H -0.427026 -7.284148 15.870955
H -12.191188 7.698742 -11.261757