14
H6 C5 N2 O1
C -2.953186 -8.336173 6.967256
C -10.849505 -12.800052 -14.280759
C -5.901629 -2.509432 34.378666
N 18.322350 11.474111 4.109238
C 19.034853 -0.527217 16.757710
O 19.124634 -6.538511 -17.107870
N -13.974700 10.667761 12.970359
C -2.280868 2.455562 1.886487
H 17.420473 1.370568 3.223353
H 3.072505 -1.925544 0.459466
H -25.334038 1.481272 -14.401743
H -12.864295 -20.256994 -0.695663
H 7.549624 -0.502910 -21.578522
H -10.366329 25.947561 -12.687894