24
H15 C8 N1
C 2.952431 -38.303574 -22.466248
C -2.571431 11.624417 17.166672
C -28.032528 -16.650946 -14.050251
N 11.552018 -7.444159 -3.548199
C -0.107794 7.156609 -18.170481
C -2.663572 -14.604308 1.966901
C 28.041586 10.840939 9.775938
C 16.287209 6.406465 -6.288956
C 0.410732 -10.593978 -7.801210
H -16.289522 26.426147 -18.813105
H -9.116259 -17.743853 8.180567
H -9.045094 -16.338825 34.847908
H 13.898755 4.766097 1.718256
H 15.083389 0.600706 10.107681
H 14.505221 16.003006 4.641183
H -36.089443 5.263973 -1.328937
H 7.003874 -8.490276 -9.272870
H -5.683505 1.507646 21.315273
H 10.676151 3.918014 -10.929698
H -16.037840 -2.705800 4.084513
H -4.119625 5.087050 -2.136505
H 26.452456 6.566535 -3.317157
H 3.331955 13.681381 -3.913082
H -20.439150 13.026720 8.231934