16
H9 C4 N1 O2
C 1.139047 16.741537 1.625017
N 16.856937 17.498999 -17.100365
C 6.686713 11.728631 -18.988621
O -17.778566 11.846752 22.892841
C 9.055466 -16.442627 11.437377
O 18.516825 -18.299105 -1.599546
C -29.056629 -12.611465 4.543239
H 16.984549 13.085181 6.882610
H -16.488344 -7.225561 15.876704
H 0.457912 -12.728143 -10.000656
H 1.122873 9.647573 -3.861758
H 3.513726 2.529870 -14.513071
H 1.484207 -17.741972 -11.641979
H -5.332743 13.081194 11.873825
H 3.439385 -18.714516 4.026940
H -10.601432 7.603624 -1.452531