23
H14 C9
C -11.512686 -12.730565 4.333505
C 17.728020 13.836946 -6.586054
C 22.010990 2.677962 4.904484
C -21.274878 11.993279 -11.076311
C -10.175372 -12.744390 -9.435908
C -12.102325 13.145578 3.431287
C 1.817674 -10.773845 0.959019
C 5.196708 -3.513232 19.549837
C 23.942146 6.945519 -32.464954
H 1.454851 -26.176508 -18.836744
H -26.283812 -0.460240 -0.423074
H -0.798141 1.955191 11.625993
H -7.048630 -6.678036 -6.357781
H -2.592019 -2.175253 6.890439
H -15.022943 15.162334 11.300243
H 30.564114 -2.305619 5.928224
H 9.727612 5.652942 25.427645
H -14.778685 2.868840 -23.352627
H 10.882543 -14.261671 7.372917
H -2.984297 -0.910921 -14.682535
H 13.273763 -5.502532 -10.626692
H 8.075924 14.246055 18.568380
H -20.100628 9.748144 13.550651