19
H10 C7 O2
C 3.146316 0.509574 2.757044
C 4.177091 -24.240147 -4.222084
C -15.645895 -10.666622 -1.758908
O -3.336601 16.648880 1.764754
C 21.104681 18.222269 -13.925559
O -14.140032 3.539687 13.430447
C 4.443474 -5.179908 -3.140295
C 28.793156 21.533430 6.029276
C -0.616001 -16.793787 7.799594
H 5.003089 11.224306 -1.811088
H 9.453287 1.415627 -3.071460
H -19.526695 -10.454456 3.335310
H -6.526186 9.291883 -5.955053
H -19.327660 -11.610670 16.671133
H 40.723038 20.970320 -16.835129
H -18.434397 -23.592596 -14.297062
H -18.385838 19.685583 9.536914
H -11.517590 -24.453745 -1.860905
H 10.612841 3.950279 5.553130