16
H7 C4 N5
N 12.922576 1.620944 -11.540673
C -9.987441 5.728086 3.095587
N -9.114868 17.452816 21.716518
N -2.254145 -18.217306 -6.801970
C -6.951485 19.552195 -3.399414
N -15.243759 -3.308228 14.456236
C -19.200068 -7.487749 -18.232124
C 6.492224 6.457965 -9.373082
N -25.873869 -6.112076 18.194035
H 50.436924 19.499208 -13.148736
H 2.894607 -23.278845 -13.254812
H 15.458697 -7.087083 -6.200064
H 2.211754 7.767966 6.642308
H 4.309476 3.007109 23.629465
H -2.181768 -12.948856 3.739175
H -3.918839 -2.646227 -9.522443