15
H8 C4 O3
O 36.329826 22.490587 19.725769
C -8.282256 -3.108872 -5.380866
C -4.878644 -9.953282 -13.062501
C -15.941605 4.128313 2.980983
O -8.185857 17.843693 -11.540163
C 27.272038 -7.308609 21.018339
O 8.775546 -9.469268 -10.412814
H -8.512388 6.765505 -7.183997
H -16.672367 -6.087923 -2.294346
H 11.164452 5.945959 6.386047
H -11.781844 -4.761999 -3.731961
H 11.460229 -25.141319 -8.274369
H -14.651964 -7.969250 -28.811596
H 3.362854 19.558672 28.485750
H -9.458023 -2.932234 12.095693