15
H6 C5 N2 O2
C 1.860108 8.187427 18.693039
C 9.340722 -14.224545 18.137075
O -7.595205 -24.931967 0.421104
C 1.496287 19.564825 8.399898
C 1.396863 -5.537858 -28.531460
C 0.493269 29.235794 6.684303
O -10.440794 -16.696232 6.126455
N 8.979472 -2.178381 -4.106610
N 5.433716 -0.214237 -11.595910
H 26.806276 -19.617931 -16.091291
H -11.373755 7.963907 7.968126
H -11.744302 14.299843 -6.028516
H -13.071757 -4.147767 5.706436
H 5.323657 6.181110 3.401205
H -6.904604 2.116102 -9.183795