17
H8 C7 O2
O 2.934869 -7.211278 -11.835316
C -2.648172 -9.944044 -0.079463
C -31.518253 2.002356 25.767351
C 4.989061 -16.749668 6.289177
C 4.834195 1.118265 -23.791101
O 6.820745 15.553361 6.576735
C 13.754497 17.514877 10.449412
C 21.404615 -2.227585 4.147218
C 18.282047 -13.030886 5.458310
H 21.380409 -15.672117 -5.812429
H -4.941492 -23.014330 -19.840919
H 6.212827 13.379624 -16.158714
H -19.520485 18.584320 -3.510176
H -8.679618 -4.412018 -1.687146
H 2.397691 17.945942 6.827000
H -21.699072 9.661853 5.877068
H -14.003726 -3.498629 11.323020