15
H7 C5 N1 O2
C 0.789477 -0.041540 0.199632
C -0.501417 -0.659130 0.343493
C -1.749885 0.060937 -0.005918
N -1.260726 -0.936026 -0.895442
C 1.288670 0.474640 -1.098604
O 1.224444 0.135285 2.540318
C 1.341241 0.584905 1.384864
O 1.789055 -0.708185 -0.553180
H -1.722193 1.154399 -0.457937
H -0.617490 -1.267961 1.184766
H -1.830916 -1.814418 -0.753269
H -2.705408 -0.069980 0.522216
H 0.705135 0.357713 -1.950184
H 1.751449 1.670208 1.330805
H 1.991501 1.271158 -1.096698