20
H11 C6 N1 O2
C -2.074115 -0.984640 -1.408635
C 1.011515 -0.615124 0.451831
C 2.020742 1.672085 1.319987
C 1.398957 0.326972 1.622440
N 0.073602 -0.139167 -0.263985
O -2.550818 -1.425045 -2.542044
C 0.624525 1.583017 1.965445
C -0.488052 -0.906690 -1.392534
O 1.517785 -1.766919 0.311418
H -0.196400 1.936054 1.318938
H 2.013037 2.011931 0.216974
H 0.055332 -1.203096 -2.233188
H 1.794433 -0.205221 2.465890
H 0.521769 1.774112 2.984534
H -2.256593 -0.777543 -3.246349
H -2.444683 0.085106 -1.082916
H -0.551935 0.397604 -2.085265
H 2.860061 2.065940 1.826440
H -0.311581 -2.157235 -0.903708
H -2.477855 -1.628146 -0.562577