18
H9 C5 N1 O3
O 0.957422 0.767813 1.408537
C -0.060838 -1.027424 0.172855
C -1.530196 -0.658400 0.565642
N -1.583204 0.107160 -2.739732
C 2.344808 1.076453 1.434421
C 0.916147 -0.533381 1.135126
O 0.007768 -0.304121 -1.126971
C -1.249703 -0.259963 -1.551059
O -2.216036 -0.585849 -0.669797
H 2.430031 2.058835 1.802597
H 1.442807 -1.244509 1.593111
H 2.785100 0.980123 0.434584
H -2.496706 0.416010 -2.842713
H -1.524004 0.302222 1.147179
H -1.953263 -1.442650 1.204759
H -0.933505 0.813249 -3.212572
H 2.915293 0.330192 2.139943
H 0.131499 -2.055100 -0.021489