17
H8 C7 N2
C -0.590082 1.064299 -0.443035
C 0.999808 -0.260187 -1.221781
C -1.461794 -0.942747 1.777292
C 1.801309 1.188535 -3.120085
C -0.231070 -0.304515 2.395061
C 0.957141 0.923310 -1.989477
N 0.119264 -0.155578 -0.164198
C -0.151583 -0.893749 0.999508
N -0.239710 1.739092 -1.468112
H -0.143221 0.817864 2.498749
H -2.297524 -0.272382 1.404404
H -1.383322 1.483903 0.088157
H 0.175917 -0.857432 3.187057
H 2.324735 1.589469 -4.032071
H 1.562077 -1.102247 -1.187760
H 0.376371 -1.832013 0.920796
H -1.803773 -1.831441 2.135836