14
H5 C5 N3 O1
N -0.995464 1.263991 0.573557
C 0.249441 -0.305102 -0.090977
C -0.237812 -1.779712 -0.106226
N 0.770658 -2.518249 -0.571220
C 0.258999 1.420625 -0.019660
C -1.529397 -0.049266 0.515960
C 1.655658 -0.488650 -0.536162
N 1.861034 -1.862007 -0.793372
O -2.581659 -0.391353 0.779736
H 2.447457 0.046490 -0.646669
H -1.622358 2.037773 0.722950
H -1.161759 -2.318021 -0.013427
H 1.018043 1.698513 0.760919
H 0.318335 1.945017 -0.821964