15
H8 C6 O1
C -0.381508 0.680446 0.764500
C 0.751855 1.222849 -0.038281
C 0.255578 -0.145138 -0.404828
C -1.045428 0.124063 -1.158734
C 0.992569 -1.437250 -0.269956
O -0.402901 0.486817 2.100282
C -1.684466 0.700291 -0.089418
H -0.597244 1.322684 2.587553
H 0.568137 2.057109 -0.778201
H 0.487576 -2.167568 0.449227
H -1.324544 -0.065011 -2.221086
H -2.679414 1.019300 0.069690
H 1.638361 1.266510 0.492710
H 1.977511 -1.319600 0.152213
H 1.105706 -1.943190 -1.213381