15
H6 C6 N2 O1
N -0.560828 -0.960881 0.013521
C 0.505724 0.956392 0.021256
C 1.343896 3.451379 0.333635
C -1.541139 -1.985421 0.280615
N 1.260841 0.024954 -0.726390
C 0.944094 2.306915 0.256529
C 0.595184 -1.131250 -0.767280
C -0.611484 0.375408 0.507559
O 0.970371 -2.238194 -1.288182
H -1.611522 -2.172819 1.385589
H 1.724804 4.460958 0.465804
H 2.089085 0.159191 -1.177822
H -1.402866 0.688846 1.096379
H -2.478394 -1.641608 -0.075013
H -1.209531 -2.882315 -0.225009