19
H10 C6 N2 O1
C -0.351353 -1.274875 -0.756473
C 0.936146 -0.394600 -0.852516
N 0.117990 -1.567265 0.603111
C -0.875480 1.141037 -0.556011
N -1.704931 2.116799 0.076335
C 0.364602 0.700453 0.143538
O -1.581620 -0.225834 -0.642048
C 0.102916 -0.261977 1.326925
C 1.487627 -1.515247 0.054158
H 0.826020 -0.228909 2.122970
H -1.386430 2.190334 1.065015
H 1.009683 1.503415 0.369785
H 1.742557 -2.414021 -0.516835
H -0.881251 -0.020254 1.803172
H 1.267817 -0.067863 -1.797620
H -2.703751 1.880275 0.134609
H 2.353076 -1.210099 0.717701
H -0.788081 1.475553 -1.659167
H -0.590516 -2.022365 -1.351107