21
H12 C8 O1
C -1.701584 1.457874 -1.444961
C -1.390994 0.507277 -0.299319
C 0.846361 -0.221383 0.950480
C 1.804674 0.888158 0.532356
C -0.160891 -0.391522 -0.284411
C -2.112270 -0.838720 -0.338345
O -0.979079 -1.579003 -0.053461
C 1.560091 -1.569878 1.238014
C -1.965999 2.143752 -2.330940
H 0.331293 0.141665 1.807960
H 0.846253 -2.256409 1.578780
H 0.372342 -0.570955 -1.232961
H -2.311913 2.671465 -3.163012
H -2.961061 -0.862633 0.430817
H 2.533161 0.554036 -0.394047
H -1.464004 1.035908 0.644439
H 2.615713 1.055407 1.394582
H 2.076789 -2.043892 0.383280
H 1.403098 1.790133 0.287884
H -2.521218 -1.075873 -1.343089
H 2.255204 -1.420802 2.077078