18
H9 C5 N3 O1
C 1.933795 0.451240 0.405653
N 2.836519 0.468572 1.218058
C -1.605919 -0.016187 0.867236
N -0.634330 -1.165244 0.742644
C -0.196554 1.458920 -0.383369
N 1.270894 0.502193 -1.904001
C 0.858496 0.339088 -0.568310
C 0.200103 -1.028078 -0.548301
O -0.923653 1.297352 0.834282
H -1.236105 -1.933526 0.820657
H -2.270376 -0.026901 0.058251
H 0.065263 -1.133922 1.486827
H -0.606328 -1.054977 -1.305795
H 0.914681 -1.792911 -0.690890
H -0.869370 1.474740 -1.234617
H 2.077519 -0.027996 -2.030967
H -2.154350 0.082139 1.847520
H 0.288617 2.447904 -0.332029