15
H6 C5 N2 O2
C 0.453776 -0.053917 0.420618
O -1.389670 -1.395321 1.030819
C -1.786705 -0.238776 0.083784
O 0.578070 0.806345 -0.602350
C 1.722190 -0.625488 0.982224
C -0.761790 -0.144974 1.171841
N -0.187482 0.887642 -2.848742
C -0.316862 0.460784 -1.666530
N -1.132920 -0.459248 -1.151141
H -0.839546 0.221439 2.201358
H 1.544153 -1.345444 1.682616
H 2.248656 0.253594 1.599372
H 2.426596 -0.881338 0.255359
H -2.758985 0.397296 -0.053788
H 0.423610 1.599566 -2.960065