19
H11 C6 N1 O1
C 0.160265 1.465887 -0.708709
N 0.884430 0.020813 0.499129
C -0.698267 0.213643 -1.259487
O -0.043965 -2.519459 1.430957
C -0.045729 -0.781147 -0.276071
C -0.910312 -1.701560 0.684734
C -0.007593 1.250461 0.845773
C 1.492832 0.859946 -0.558640
H -0.059908 2.411346 -1.207136
H -1.797616 0.411630 -1.082188
H -1.578148 -1.070367 1.259409
H 0.484728 1.871045 1.452581
H 2.297017 1.487260 -0.079735
H -0.483627 0.070860 -2.300969
H 0.575666 -1.488632 -0.869461
H 1.956771 0.292000 -1.428828
H 0.674880 -1.862372 1.711205
H -0.963911 0.999887 1.207311
H -1.564602 -2.360129 0.052031