18
H9 C6 N1 O2
C 0.367872 1.376240 -0.483623
C -1.501828 -0.712829 0.148383
O -1.432048 -0.232278 -1.091941
C -0.393261 -0.398724 1.181138
C 0.849663 0.068564 0.341787
N -2.485178 -1.370992 0.587290
C -0.132234 0.318901 -1.493392
C 0.930873 -0.605196 -1.020339
O 2.056842 0.168354 1.134462
H -0.082120 -1.251153 1.718522
H -0.641635 0.332462 1.896009
H 1.821296 -0.378033 -1.469973
H 0.756245 -1.632604 -1.072096
H 1.376306 1.880427 -0.803878
H -3.190575 -1.439564 -0.169698
H 1.913691 0.843672 1.803041
H -0.273462 2.078044 -0.039903
H -0.265965 0.566151 -2.545948