15
H6 C6 N2 O1
N 0.357315 -1.669667 0.996928
C 0.264754 0.727871 1.033529
O -1.099657 1.557462 -0.967837
C 0.170153 1.499138 -0.282555
C -0.468120 -1.484406 -1.500438
C 0.115833 -0.960961 -0.321623
C 0.988348 0.249148 -0.267366
C -0.488344 -0.501016 1.024242
N -0.879418 -1.836064 -2.534625
H 2.094326 0.168469 -0.450852
H 0.694530 1.194920 1.986430
H 0.715291 2.386608 -0.389287
H -1.628444 -0.547649 1.265673
H -1.578531 2.407578 -0.497495
H -0.127442 -2.519334 0.983525