10
H1 C4 N3 O2
O -0.314769 0.680332 0.707146
C 0.311393 -0.983955 1.874317
O 0.528110 -0.784813 -2.326134
N 0.558235 -1.313208 0.611584
N -0.191672 0.287734 2.081096
C -0.454096 1.282043 -1.888790
C 0.226370 -0.316094 -0.053018
C 0.145435 -0.025725 -1.546957
N -0.885689 2.320633 -2.220235
H 0.605405 -1.613148 2.744379