15
H6 C7 O2
O -2.279379 -1.221388 1.180930
C -0.945809 0.838283 1.127357
C 1.193945 -0.191838 0.423077
C 0.025352 0.745669 -1.201711
C 0.624892 -0.659359 -0.941534
O -1.651325 1.676944 1.706582
C 0.015695 -1.257008 0.443375
C 0.306591 1.157765 0.301319
C -1.147938 -0.641299 0.961157
H -0.959782 0.865342 -1.601732
H 0.208791 -2.316183 0.641408
H 0.817738 2.112069 0.479989
H 0.753711 1.193049 -1.848089
H 1.046334 -1.327741 -1.641006
H 2.024787 -0.321060 0.898963