17
H8 C6 N2 O1
C -0.035652 1.484980 0.456323
O -1.870549 0.044018 -1.989673
C 2.296391 -0.362744 -0.237372
C -0.048080 -0.011971 0.356787
N 3.160469 0.051923 -0.928354
C -1.271822 -0.734172 0.749324
C -0.809316 -0.608391 -0.692912
N -1.044593 -0.841878 -1.885329
C 1.268736 -0.751486 0.704177
H -2.228608 -0.363338 0.838301
H 1.152156 -1.864705 0.617560
H -1.897548 -0.329698 -2.861250
H -0.002584 1.736395 1.550826
H 1.561212 -0.452949 1.691323
H -1.136094 -1.691452 1.352592
H 0.783346 1.983275 -0.147729
H -1.026589 1.894599 0.041611