17
H8 C7 O2
C -1.249890 0.491697 0.456903
C 1.174527 0.025945 -0.784577
C -1.259559 0.474806 -0.939113
C 1.108564 -0.954913 0.307228
C 0.213420 -0.966426 1.589355
O -0.174640 -1.847535 0.718238
C -0.792181 0.159299 1.595200
C 0.151186 1.064091 -1.220873
O 1.903878 0.442970 0.363905
H 0.238714 1.322710 -2.320777
H 1.742368 -0.243366 -1.687173
H 1.823255 -1.790912 0.150610
H 0.305084 2.035291 -0.662318
H -1.575625 -0.341084 -1.416264
H -2.092758 1.292631 -1.172232
H -1.304598 0.356429 2.426167
H 0.622724 -1.343883 2.617748