23
H14 C8 O1
C 0.443600 -1.272388 0.860907
C 0.147816 -0.514208 -0.484974
C -1.885257 0.474827 0.936489
C -0.102534 -2.001215 -1.079819
C 1.780500 1.278141 -0.649093
C -1.396089 -0.544139 -0.005052
C 1.258532 2.682662 -0.217811
C -0.787936 -2.052508 0.299341
O 0.674185 0.533592 -1.220611
H 0.468796 2.516533 0.578876
H -2.122304 1.370811 0.414962
H 2.090786 3.196240 0.266396
H 0.777558 -2.605894 -1.232038
H 1.391531 -1.852725 0.826989
H 2.211889 0.658698 0.185191
H 0.954176 3.115965 -1.021433
H -2.045229 -0.650211 -0.874976
H -1.310351 -2.900991 0.753753
H 2.570480 1.313118 -1.346481
H 0.295330 -0.747774 1.776540
H -1.032352 0.781658 1.629640
H -0.751071 -2.079929 -1.981825
H -2.738119 0.097314 1.451378