19
H11 C6 N1 O1
C 0.735046 -0.474486 0.311231
C 1.325427 0.924290 0.672397
C -0.253381 -1.212973 1.168591
C -0.123288 -0.620959 -0.881335
C -1.578968 -0.621891 0.988437
O 2.410590 1.160996 -0.152440
C -0.809479 0.492770 -1.605589
N -1.091317 -1.545066 -0.104201
H 2.836949 2.037200 0.007217
H 0.419043 -1.297565 -1.652290
H 1.657776 -1.103541 0.229711
H -1.754093 0.430800 0.869707
H -1.520587 0.067819 -2.428523
H 1.587129 0.959868 1.729378
H -1.427205 1.182310 -0.944674
H -2.474209 -1.175793 1.603244
H -0.149731 1.164611 -2.156049
H 0.529606 1.719838 0.516525
H -0.009207 -1.962943 1.897539