14
H8 C4 O2
C 0.162857 0.664692 -0.419808
C 0.206531 -0.679801 0.339189
C 1.029714 -0.472198 1.595851
O -1.147735 -1.051679 0.584982
C -0.658943 0.631156 -1.712284
O 0.617877 1.709922 -0.027251
H -0.764770 1.674222 -2.091638
H 0.564586 -1.381735 -0.357978
H -0.116813 -0.005274 -2.480918
H 0.936177 -1.375483 2.100136
H 0.680260 0.312133 2.206339
H -1.609283 -0.312109 1.167724
H 2.082592 -0.277490 1.271997
H -1.606716 0.217517 -1.586695