15
H6 C6 N2 O1
C -1.671682 -0.328115 0.035269
N -0.942623 1.721857 -1.327131
C 1.257540 -0.455990 -0.017216
C -0.944350 -1.079332 0.863764
C -0.856612 0.525006 -0.770036
C 0.450362 -0.766418 1.248222
O 2.504536 -0.604868 -0.030002
C 0.543710 1.616727 -1.624684
N 0.519691 0.213626 -0.924472
H -1.479955 -1.993262 1.450263
H -2.712242 -0.346339 -0.076138
H 0.719778 1.601692 -2.704575
H 1.165396 2.312368 -1.095037
H 0.499973 0.004943 2.029194
H 0.925780 -1.601617 1.710980