18
H9 C6 N1 O2
C 2.286502 -0.623675 -2.233678
C 0.594622 -0.202378 -0.230145
C -2.520382 0.122989 1.262126
C -0.262527 -0.032868 0.907235
O -1.560420 0.256893 0.411047
N 1.730230 -0.839106 -3.441677
C 1.346036 -0.482195 -1.104150
C 0.244175 1.006649 1.844428
O 3.581984 -0.686537 -2.007326
H 2.290390 -0.820675 -4.290351
H 0.681093 -0.743656 -3.443626
H -0.336362 -0.994112 1.389158
H -2.558269 0.808258 2.208813
H -0.335658 1.032620 2.749492
H 1.263162 0.746081 2.182412
H -2.696465 -0.983301 1.630560
H -3.556445 0.357492 0.747999
H 0.363332 1.899181 1.328521