18
H9 C7 N1 O1
C -2.283409 -0.634371 1.346722
C -1.369512 -0.545279 0.649864
C 1.244526 1.360573 0.691902
C 0.039012 1.954263 -0.172717
N -0.167393 0.767120 -1.042633
C 0.121800 -1.669079 -1.086272
O 2.002886 2.001945 1.338116
C -0.055447 -0.464723 -0.197276
C 1.209415 -0.182377 0.567598
H -1.134967 0.819669 -1.479326
H 2.123178 -0.504879 0.075370
H -0.806166 -1.835152 -1.782475
H 0.247354 -2.571782 -0.510471
H 0.938409 -1.522662 -1.785170
H -3.101552 -0.661331 1.907059
H -0.792646 2.129774 0.485300
H 1.213561 -0.625771 1.607301
H 0.322598 2.846901 -0.706703