17
H8 C8 O1
C 0.111169 -1.187537 1.264000
C -0.404214 0.506257 -0.528998
O 0.383131 1.681161 -0.159412
C -1.443470 0.765201 -1.419629
C 1.365745 -0.490624 0.483122
C 0.830537 -0.405725 -0.977175
C 0.754406 0.921368 0.958894
C -2.366217 1.010193 -2.144387
C -0.553709 0.166117 0.987919
H -0.211354 -2.125190 0.815829
H 1.178794 1.474169 1.792777
H -1.520707 0.434735 1.527751
H -3.191582 1.281852 -2.850680
H 2.347753 -0.826896 0.622175
H 0.405162 -1.405197 -1.331521
H 1.449065 0.134233 -1.662455
H 0.409315 -1.280324 2.314565