15
H6 C5 N2 O2
N 0.791151 2.099465 0.902369
C 0.441189 -2.298231 0.023106
O -2.073385 0.514310 -0.484268
C 0.394007 0.275135 -0.032371
C 0.665155 -1.039430 -0.694955
C -0.585203 2.155535 0.490365
C -0.890493 1.006585 -0.077605
O -0.510848 -1.913998 -0.962136
N 1.385666 0.953593 0.509119
H -1.159717 2.991640 0.741929
H 1.388449 -1.042194 -1.524385
H -1.913393 -0.384590 -0.730923
H 0.196340 -2.206644 1.087642
H 1.334224 2.769038 1.353088
H 0.942734 -3.176684 -0.214500