17
H8 C8 O1
C 1.560266 0.892103 -1.011383
C 0.434864 0.371899 -0.209459
C -0.342565 -1.483993 1.112030
O -1.531190 1.447960 0.883124
C 2.444798 1.191745 -1.750017
C -0.829560 -0.275703 -0.852068
C 0.686384 -0.369109 1.026035
C -0.893678 1.055329 -0.314577
C -1.196505 -1.448417 -0.019934
H 3.211428 1.553347 -2.279052
H -0.437678 -2.196696 1.974609
H -1.019374 -0.350813 -1.976310
H -1.634451 0.637373 1.418628
H -2.021627 -2.104834 -0.196381
H -0.967963 1.949704 -0.908244
H 0.701187 0.235337 1.909330
H 1.719622 -0.869692 1.037157