12
H4 C5 N2 O1
C 1.230674 -1.716295 -0.299996
C 0.389531 0.167100 -0.009444
C -2.113247 -0.464571 -0.092187
C -0.673938 -0.699803 -0.101890
N 1.603047 -0.553377 -0.083481
C 0.372343 1.622986 0.262411
N -3.169598 -0.309425 -0.040025
O -0.172161 -1.907162 -0.310439
H 0.607567 2.236256 -0.655532
H -0.583474 2.021818 0.563387
H 1.825822 -2.625772 -0.399738
H 1.041827 1.962422 1.008469