20
H12 C6 O2
C -6.759504 20.779116 5.854289
C 15.469148 -4.590669 -1.800454
O -9.594117 -9.645309 -25.277811
C -0.633618 -18.696882 -17.626314
C 6.577871 7.147987 2.162789
C 19.813774 -2.828126 2.728376
O -20.412724 -20.608696 20.962622
C -5.606105 5.369606 -19.731651
H 33.898376 3.243648 -23.439718
H 13.099052 -6.971468 3.073039
H -20.708115 0.429839 -20.545906
H -1.983712 -6.528242 -18.523581
H 5.189024 6.820803 20.227278
H -14.751010 0.200349 13.542841
H 3.654363 1.518161 3.359945
H -6.946551 -8.214120 16.218760
H 6.539993 20.800358 9.893242
H 24.490564 -5.178852 5.332152
H -15.802246 9.790517 2.561012
H -25.534439 7.161983 21.028967