17
H10 C5 O2
C -11.177587 4.638192 -6.896791
C -9.908310 -4.985475 -7.634495
C 21.311729 8.318725 -12.068218
O 8.703892 22.488518 -11.006171
C -7.454643 -4.605349 17.181538
C 0.017504 -7.190317 -17.017296
O 1.244090 -7.877857 7.882206
H -10.908213 21.114477 -4.703930
H -11.258049 34.820068 -11.744921
H 2.414179 -20.693808 19.847446
H 10.048291 3.647388 4.421220
H 0.598100 6.075465 19.986217
H 2.459877 -25.346060 7.887851
H 14.176812 -6.438054 -14.685437
H 4.407195 9.388135 -0.865302
H 0.578783 -24.408140 2.142247
H -15.253622 -8.945693 7.273712