22
H13 C7 N1 O1
C 8.498886 -1.131070 -7.005614
C 3.005124 5.401990 5.932505
C -1.168372 22.517126 -26.592577
C 8.169661 -26.789774 1.300737
C 0.981127 -3.319669 4.436681
O -7.471093 -20.116850 19.110592
C 20.868917 0.228781 15.582740
C 10.755739 -8.002153 9.746827
N 1.129461 -32.049767 -4.502985
H -27.350676 0.070655 -10.635891
H -7.082521 8.667364 -44.834961
H 8.171505 -1.137593 -0.028274
H -5.220704 23.258278 35.907055
H 19.221218 2.750530 -15.216422
H 1.711079 -13.843225 10.043285
H 7.513551 -19.454411 1.241456
H 21.865431 8.867887 2.880418
H -0.798302 1.671811 0.016119
H -11.746112 32.879986 0.156233
H -14.217434 10.368492 -5.040133
H -31.150446 16.034750 -15.059945
H -5.686019 -6.873108 22.562162