17
H8 C7 O2
O -4.766905 -4.232809 2.208907
C -5.515111 -1.523252 2.948827
C 16.880634 -16.172903 16.699989
C 28.257977 12.123044 -17.254742
C 11.122805 -23.785423 9.662499
O 13.551313 -21.430285 8.069242
C 8.614667 7.113297 -18.994457
C 17.811197 15.748569 -3.963703
C 1.282904 3.064491 -31.549091
H -18.370823 1.373834 -5.521249
H -28.925570 14.136081 -1.891114
H 1.907945 15.799831 22.027166
H -21.377308 0.864796 -3.646030
H -13.227555 14.912720 6.876189
H 13.128136 -7.888918 11.415046
H -16.182632 1.134350 6.348026
H -4.191596 -11.237335 -3.435513