21
H12 C8 O1
C -16.079798 18.369223 -22.148186
C -19.242203 -12.415457 16.176609
C 4.027004 13.511481 3.705336
C 23.027876 -50.783485 11.304543
C -15.624723 3.478787 7.138229
C 18.849970 7.723597 -4.362763
C -1.492157 22.932379 18.787964
C 14.402664 1.722630 14.953919
O -17.114880 -0.079547 17.754183
H -14.573802 -10.189590 15.406891
H -3.000226 -6.369451 -19.126629
H 13.236420 -5.429597 -21.287380
H 16.753166 3.879641 18.062702
H 5.802716 17.287947 -5.145885
H 0.912397 -15.756280 -21.114109
H 10.782952 3.208933 -20.165445
H -3.391539 4.537105 11.125848
H 1.292164 -4.941484 11.022980
H 4.682837 23.716316 -31.280174
H -7.466166 -3.507021 -0.058889
H -15.784748 -10.896094 -0.749731