15
H6 C6 O3
C -2.615914 10.900386 -9.713147
C -14.714397 -16.524281 -9.852725
C 14.553812 8.143861 6.607279
C 17.210762 -2.645772 -8.937549
O -12.387958 -9.952138 -7.150491
C -2.711496 -2.905213 8.201019
O 8.814159 -3.970117 -3.643707
C 9.615845 -2.764808 27.129292
O -1.032217 4.018690 5.726385
H -19.894768 -8.792741 -20.033297
H -17.535616 -1.640824 6.424166
H -13.000154 32.256310 -9.339973
H 20.628553 -15.961180 8.927353
H 13.123385 14.891923 11.814440
H -0.054192 -5.054047 -6.159063