18
H9 C5 N1 O3
O 10.009460 11.613549 -2.348997
C 20.016981 -7.556577 2.457185
C 6.185001 -16.494280 -0.491245
O -14.728499 -7.304852 -9.021257
N -12.360271 21.558458 2.042405
C -7.762000 -6.182499 -10.153739
C 19.026432 -0.432994 -21.985161
O 0.957060 -0.617237 4.896866
C 12.561981 -2.506797 14.925040
H -10.209091 -8.043890 -15.121773
H -8.037045 1.375280 24.864676
H 1.977580 5.525635 24.122648
H -3.873760 4.206564 -9.440536
H 0.113833 -15.296992 17.344187
H -10.071257 6.153970 -12.074814
H -4.282612 -3.084223 4.528214
H 15.062528 18.460697 -2.686585
H -14.586300 -1.373865 -11.857163