14
H5 C6 N3
C -12.394292 -22.667906 2.039522
N -6.172211 -24.033884 -3.714079
C -0.762941 16.246523 1.952546
C 20.287889 15.944311 3.738064
C 4.886270 14.413538 -14.918180
C 4.208780 -6.002408 16.066097
C 1.777913 -38.048168 5.416224
N -19.969267 3.379962 -15.686459
N 16.536877 9.515131 7.920724
H -17.834103 -9.520506 -2.583867
H -2.703882 36.229641 11.318556
H -8.585074 -0.855058 -13.924706
H 8.801678 13.597525 -9.195929
H 11.922396 -8.198800 11.571428