17
H9 C5 N1 O2
O -9.972857 4.762099 12.578116
C -12.362411 17.456488 -5.968111
C -15.113939 14.503101 -16.058746
C -10.168135 -3.701737 9.747497
C 3.972828 -3.074666 6.304175
N 13.527722 -6.607592 11.871408
C 32.660900 -26.755409 7.958799
O 7.057967 0.364060 -17.343296
H 8.151353 2.685795 1.953019
H -4.102895 0.989246 21.905802
H 1.487293 -13.810380 -14.477527
H 9.284718 -1.654644 -37.197227
H -12.885517 7.275973 -1.599899
H -24.780149 0.883726 -5.577423
H 15.906376 -14.130368 24.572584
H 7.022827 12.680126 5.675552
H -9.686151 8.134181 -4.344617