14
H6 C6 N2
C -22.305220 -15.056233 -12.872138
C -3.180058 -25.427876 -2.454065
C 11.430388 -13.166248 7.881652
C 17.016090 8.418183 4.447353
C 3.774084 -12.324601 3.427574
N 21.372778 -15.394580 -3.569518
C 2.720362 -8.353460 11.296510
N -5.280461 9.454567 1.084566
H -4.959589 4.828548 9.965188
H -8.005186 12.127499 10.324701
H 9.642291 30.494354 -5.416446
H -9.530147 -9.163031 9.773368
H -18.983011 -0.589261 -46.849102
H 6.287622 34.152115 12.960390