18
H9 C6 N1 O2
C -8.870476 -11.733406 14.719605
C 0.433242 10.919397 2.730851
C -20.805964 -7.915786 14.819907
C 3.520571 -33.146973 -3.281509
O 0.554134 17.730785 -19.785681
C 9.178571 12.628555 1.645893
C -5.696093 -2.467966 1.009213
O 4.602737 -15.875474 -0.385083
N -20.482845 6.051026 -7.073579
H -14.339726 -8.096188 10.876083
H -9.324276 7.453682 -11.704535
H -0.740250 -25.851429 4.137844
H 19.252642 -2.398481 14.295253
H 9.504238 16.435747 -23.150961
H 32.278294 -1.404061 -1.313823
H -7.455818 15.990774 2.261310
H -6.552817 -7.415977 3.755842
H 14.943809 29.095842 -3.556595