16
H7 C4 N5
N 0.701875 10.889879 -9.546169
C -11.247581 4.648304 -6.798502
N -34.194740 -0.447571 17.360327
N 6.454912 15.446158 -12.384796
C -6.461871 -11.463028 1.410922
N 12.079052 -21.073343 -30.331244
C -16.330154 21.948872 1.259231
C -0.766641 7.306657 3.918607
N 15.334638 -30.068296 17.309437
H 1.474546 -13.271182 6.003487
H -17.516882 9.802238 -8.709883
H 3.201390 0.032553 0.310825
H -17.687075 7.316597 3.542793
H 21.791828 5.889097 -3.156431
H 29.683304 -3.988020 2.662230
H 13.483376 -2.968872 17.149128