23
H14 C9
C 10.068377 -6.147148 5.659566
C 2.144810 8.726022 10.433659
C 2.140523 -26.777210 1.624801
C 7.232911 -19.754730 -1.966280
C -13.235010 21.478014 -12.225851
C 4.995917 -15.139671 -6.283048
C -2.859276 -25.302761 3.469366
C 6.893775 -6.487127 18.357321
C -28.289694 11.268116 19.086145
H 10.712754 4.286306 -10.498738
H 2.559015 7.369383 30.377602
H 5.668493 9.335144 -0.427231
H 16.020676 -6.818762 -3.404797
H 0.794317 15.009950 -1.828017
H 1.847013 -24.299341 -6.821345
H -0.391189 20.357033 -0.739538
H 10.458589 19.224854 -3.265479
H -26.992081 13.009194 -20.526306
H -9.329044 -17.515940 0.324824
H 13.019710 11.166391 -20.868729
H 3.198060 8.874754 0.684934
H 6.439476 -21.358280 2.991836
H -23.098158 19.495831 -4.154693