16
H9 C4 N1 O2
C -4.205617 5.069589 2.529549
N 1.870548 6.413810 -11.842834
C -3.820566 -10.802853 8.871313
O 18.524254 6.702121 5.243197
C 18.238724 -23.188715 -18.068708
O -17.647560 13.834356 9.065657
C 10.745774 7.728681 0.241987
H 0.601007 -29.764181 8.434432
H 9.089484 0.355759 -14.274423
H -1.902397 13.220348 21.156647
H -6.819352 -16.434340 6.569643
H -12.311200 26.611124 -2.703789
H 1.911024 19.074545 9.427644
H -1.030699 -8.105977 7.619629
H -14.537884 -18.351770 -22.966969
H 1.294452 7.637494 -9.303032