15
H6 C5 N2 O2
C 6.953451 -25.975039 -16.030973
C -3.039152 5.156257 -8.315837
O -23.116709 17.811764 5.094037
C 20.775015 11.984056 -9.290602
C -6.412565 -5.259187 6.833829
C 13.391136 -12.073166 2.037164
O 6.543742 -4.624749 16.095993
N 16.198210 1.255630 -14.199690
N 16.364439 -10.441171 22.225752
H -9.443549 -21.755560 -15.154531
H -10.979478 25.792870 1.771039
H 3.486064 -19.744925 0.714743
H -2.758297 8.718290 17.258055
H -14.409253 2.379746 -13.180428
H -13.552966 26.775185 4.141441