18
H9 C7 N1 O1
O 1.141339 -2.992677 24.883253
C -19.970667 2.110401 7.745234
C 7.529751 5.289494 -13.827388
C 5.258555 -6.894465 -10.289621
N -16.070816 22.067875 -26.516674
C -0.603648 4.836482 -9.816894
C -21.854855 -14.040076 0.457523
C -5.841770 0.069147 4.070459
C 15.490542 -12.695683 1.374656
H 7.320001 4.034547 -10.134265
H -17.060404 12.638232 7.074727
H 10.109462 4.558644 33.767910
H 21.943581 -8.584519 -8.764957
H -7.192682 -15.356100 8.380672
H 4.521672 -4.688101 -0.260290
H 13.471985 10.789248 19.797241
H 6.333796 11.317896 -26.745337
H -4.525789 -12.460374 -1.196144