18
H9 C7 N1 O1
C 13.171922 2.036808 -17.654814
C 16.313610 1.239226 -7.791797
C -25.003799 8.219894 18.502794
C -11.921337 -5.743336 -5.612556
C 8.758126 -2.037066 -23.447701
N 11.599305 -5.908718 -7.163360
C 40.984203 -7.826196 3.545613
C -19.488108 8.662581 -7.569602
O -9.871011 -2.554511 28.696882
H 2.035222 22.376280 -8.305674
H 3.685441 13.002851 21.885550
H -7.349920 -22.816271 -10.233671
H -15.595777 16.993412 6.958018
H -16.486454 -20.819830 2.583911
H 6.573288 -8.633439 -14.573201
H 29.654751 20.464138 -12.253339
H 1.875453 -4.261806 19.714321
H -28.934942 -12.393921 12.718640