18
H9 C7 N1 O1
C -23.282780 3.660026 -11.873670
C 14.725306 -2.444889 10.173294
N -27.481768 -10.272105 -14.414334
C 33.873013 14.076226 -5.067758
C 8.147654 15.453694 17.608835
O -3.709763 -15.566888 14.039182
C -27.664518 5.188418 3.090731
C 27.667749 -11.037091 7.317085
C -16.386782 21.466206 -32.097187
H -11.860405 -15.169100 -24.202761
H -0.890555 -3.663894 5.962738
H -7.742188 -11.773275 -17.508654
H 10.292198 17.326653 18.897106
H -4.149341 -9.559391 -19.667080
H 14.067289 5.566931 -7.770452
H 37.308247 -7.410584 27.684622
H -25.255053 3.982239 12.078848
H 2.341694 0.176752 15.749428