18
H9 C6 N1 O2
C 9.874366 22.857433 12.901861
C -15.345221 23.161577 6.427443
C 7.793946 -19.843893 3.455400
O -12.931803 -8.908489 12.980856
C -22.298573 5.938851 -7.505293
N 7.909335 14.329721 -17.200956
O 8.752684 -24.939825 4.969371
C 1.972547 8.421508 15.428771
C 13.163851 -4.406841 -4.313081
H 9.256363 -9.965415 8.220017
H 8.619085 5.361647 11.158837
H 3.544806 4.550723 -9.064188
H -15.158870 -16.714005 -10.556442
H 5.947710 -8.746859 13.626488
H 1.074128 12.999928 6.345675
H -18.946592 8.444527 -22.975260
H 11.791866 -0.315654 -1.965201
H -5.019678 -12.224932 -21.934309