15
H6 C4 N2 O3
O -5.457795 17.915627 -13.896057
C 7.635111 -10.697811 -1.407935
C 4.019907 13.770992 -12.787800
O -2.429360 5.032395 9.767713
C 10.814163 -2.573034 9.342990
N 1.490713 -20.875521 -8.912454
O 4.832084 21.136911 -6.571054
C -8.942513 -15.333768 -4.608284
N -7.790429 -15.808694 2.208486
H -3.330458 -12.324663 -14.266537
H -4.961056 -6.484933 -6.578587
H -0.945621 -1.241793 6.516208
H 4.015153 27.017374 35.390041
H 8.601517 7.180344 -3.597555
H -7.551373 -6.713414 9.400798