17
H9 C5 N1 O2
O -21.209736 -10.070289 10.419568
C 17.214310 -2.881485 -3.616237
C 11.959582 21.550140 -24.557833
C 16.554876 10.898816 14.181881
C 2.312115 22.946177 5.112978
N 1.706469 -4.271840 20.421356
C -14.881317 2.178500 -10.904852
O 11.484756 -26.510933 -7.510626
H -14.037371 -21.167791 4.316301
H 10.436989 16.541618 8.857499
H 23.508638 -11.035852 -8.120160
H -20.585974 6.238092 1.816623
H 15.986466 -3.778686 -6.362630
H 4.049127 9.259539 -0.382209
H -26.720078 1.540420 3.618612
H -0.035366 1.815709 7.151406
H -17.743509 -13.252138 -14.441722