20
H12 C8
C 8.463145 2.819441 -7.429190
C 3.430853 12.146946 -28.078341
C 7.558466 -3.282864 14.348838
C -0.562495 19.611763 1.697997
C -1.978989 9.791238 9.336356
C 1.951253 18.685326 -6.359807
C 8.625110 18.408545 13.631992
C 26.367302 18.342367 21.229837
H 7.240589 -19.428507 5.985040
H -12.278021 -33.995869 18.467474
H -20.559996 -2.616818 -9.151337
H -4.142861 8.380302 1.543124
H -34.040665 -12.007345 4.450788
H 14.374624 -34.523064 -13.297689
H -19.545362 10.842341 8.974671
H 12.709805 2.125040 0.467698
H -1.394276 2.930315 -13.186099
H 6.114711 -0.369442 -20.897022
H 12.142143 -11.110960 -2.062420
H -14.475348 -6.748609 0.328104