21
H12 C6 O3
C 12.434649 21.778936 10.616239
C -26.324305 -10.045051 -6.334963
O 9.470862 -8.945496 -11.562813
C 2.786194 -6.178948 -2.344703
O 4.015857 -12.739897 32.320553
C 16.260876 7.461792 9.748473
C 9.775180 7.779192 8.926454
C 3.391112 -13.339046 -13.173530
O -7.128243 1.609322 28.503120
H 14.753555 13.923500 11.834082
H -7.935533 4.561234 -5.509713
H -3.317021 15.228574 12.209644
H 2.213707 -22.305370 -20.842506
H -23.457047 -6.559300 3.263012
H 4.368306 2.786457 -20.933216
H 0.773552 24.358307 -17.256075
H -2.276052 22.370726 15.747859
H -19.741808 -17.916607 -12.618052
H 3.162647 -8.004666 4.623131
H 8.987514 -12.302611 -3.449426
H -2.213998 -3.521121 -23.767546