17
H9 C5 N1 O2
C 10.139134 23.205576 2.763819
C 7.885479 -12.388321 7.245367
O -2.087449 17.291550 34.251324
N 6.066609 -26.685167 7.514494
C -18.932240 -7.396752 -3.539201
C -6.905103 2.398349 -46.174431
O 3.890763 4.964202 -2.069394
C 2.844690 -3.636941 -19.318693
H -10.605309 -15.961275 13.642058
H 7.773889 -3.528851 -3.820404
H 17.439837 -21.946289 2.850815
H -9.899884 10.741756 -10.572964
H 5.447752 9.728484 -8.031981
H 7.665762 11.139059 14.840652
H -9.586126 8.579777 -2.430805
H 6.782298 15.297342 18.360580
H -17.920149 -11.802554 -5.511290