15
H6 C5 N2 O2
C -3.957552 -11.464857 6.009361
C 6.899606 13.155277 -20.289007
O 11.528157 20.636051 -9.468046
C -1.091448 8.325297 5.222033
C 8.342505 22.738142 -4.531705
C -24.341158 14.032844 17.984459
O 18.387064 -8.565610 -23.174231
N 9.670315 1.690729 13.906772
N 5.334916 -23.644886 -5.088401
H -7.066853 -3.002343 -12.057237
H -1.226401 -2.617779 8.573720
H 21.188732 -25.078579 32.514210
H -32.356640 8.042450 2.483371
H -4.024985 -8.259464 -4.100754
H -7.286206 -5.987272 -7.984495