18
H9 C5 N1 O3
O 8.110306 4.194213 14.240798
C 3.186168 -5.241760 6.721710
C -6.350574 3.328838 -2.238922
O -18.999460 -12.548698 13.756692
N 1.418166 -1.107746 -0.459071
C 8.037374 11.938483 -8.000469
C 16.162371 -11.365124 8.198502
O -3.439784 -8.389075 -10.706461
C -9.240646 0.073942 -17.335922
H 21.505444 -16.134298 9.221763
H 23.030788 2.045382 1.644930
H -20.456610 2.276029 -3.678897
H -13.643438 -7.424012 -6.243802
H 13.807354 -6.182832 9.778393
H -3.567355 6.154640 4.317479
H 1.642286 19.368423 -21.251863
H -21.984482 12.794727 -6.361516
H 0.782084 6.218904 8.396660