17
H8 C7 O2
O 15.363758 3.121698 -4.521652
C -2.941271 15.682078 10.505656
C 1.537092 -26.348495 -1.598490
C 27.538668 -9.841401 -10.957143
C 23.300747 -15.835773 1.620151
O -13.193766 15.076199 -5.945143
C -3.174671 -1.922616 30.672060
C -3.432128 -5.746710 -17.171623
C 15.697201 -2.621739 11.342899
H 3.254687 11.681099 11.779320
H -7.506578 -10.454401 -4.144848
H -36.877422 0.906606 13.428014
H -7.304556 13.096233 -10.099287
H -10.429630 9.461128 8.739559
H -12.876919 -12.546799 -6.064088
H 6.440292 13.650166 -30.227083
H 4.604476 2.642672 2.641661