17
H8 C7 N2
C 0.540672 0.155533 10.705894
C -3.428293 5.820119 33.524521
C -5.619148 16.391893 -13.028970
C -15.340863 5.034830 -15.821927
C 5.308007 14.476206 3.823938
N 3.679735 15.986890 -9.764834
C -8.919168 2.178469 -22.720032
C 7.083190 3.288438 -5.719788
N 11.287848 16.050114 -1.290576
H -9.033226 4.623735 6.723443
H 10.702904 4.523764 -20.826546
H -8.507919 -8.163864 14.804296
H 11.438625 -22.119860 10.079253
H -0.004004 -3.365005 -3.234941
H -6.595093 -33.557365 7.626458
H 11.120200 -5.046757 7.661820
H -3.713472 -16.277216 -2.542028