23
H14 C7 O2
C 16.763121 10.142216 -4.952161
C 5.734834 12.752805 3.426123
C -2.928834 -7.379435 6.257409
C 8.002888 -9.713961 15.294024
C 30.609415 22.841602 -22.722048
C 11.651274 -3.331524 1.600723
O -9.820930 24.808783 -14.291730
C -9.101845 2.613624 -9.726589
O -14.841755 18.987349 18.189308
H -29.148336 1.638088 3.812638
H 9.878009 16.247375 -16.163765
H 10.673399 -21.054001 1.393067
H -10.748207 -19.459822 12.783653
H 24.395966 -19.266491 9.321939
H -16.705133 8.591061 22.478619
H -11.464981 -15.470983 -8.838861
H -4.294015 -31.759014 -9.915928
H 13.781235 16.658823 1.629781
H 3.218833 10.163011 -2.503753
H 0.347299 -21.587719 1.130089
H -27.722305 8.358211 14.291090
H 9.759520 -13.107279 -9.992729
H -8.039521 8.327165 -12.500865