14
H5 C5 N3 O1
N 4.266441 -20.340395 15.287288
C -14.706779 -17.946007 -9.913013
C -10.240177 31.350428 -0.984185
O -4.646673 3.927521 9.529143
C 12.960357 4.172115 5.517255
C 5.516068 -15.800735 -3.544941
N -17.934727 -21.698740 -0.998107
N -6.342832 11.480068 -7.877340
C 14.842769 18.280830 -5.834755
H 19.756512 6.454663 7.806707
H 13.205073 -5.334846 0.621771
H -9.782605 -0.628827 -11.087620
H -11.023222 1.088995 -10.742959
H 4.129789 4.994928 12.220692