14
H6 C5 N2 O1
C -14.671560 -7.889625 -5.734802
C -4.438213 12.815244 -35.555996
C -0.172278 8.142302 3.534866
N -14.675893 3.427253 0.694786
C 9.007378 -14.875949 4.492189
O -1.058943 13.666331 -3.181457
N -4.623160 12.317479 -15.932087
C -22.324980 2.888689 -1.389269
H 29.817083 -3.583091 10.722877
H -10.055091 -2.844746 7.098283
H -13.691927 14.085742 -0.757434
H 29.704460 -7.820997 2.339535
H 0.636702 -7.285966 30.989405
H 16.546467 -23.042625 2.679146