16
H7 C4 N5
N -34.634357 33.546936 -4.311646
C 12.980796 -2.592293 -10.998783
N -6.311313 2.099292 -12.253767
N 1.584383 -24.459661 10.779288
C 12.752190 12.438251 7.801285
N -16.635044 10.202913 0.730829
C 8.145506 9.286931 2.013001
C -0.634215 10.028292 3.662385
N 0.540492 -3.002002 -18.972322
H 0.153767 -22.131655 0.750782
H 17.197414 -11.730670 11.126987
H -1.789255 1.603616 8.372771
H -9.784592 -5.124436 -14.247753
H -3.781515 -4.844657 -15.444647
H 15.804272 -10.569087 23.166952
H 4.411455 5.248211 7.824658