18
H9 C6 N3
C 4.734679 25.432459 7.491742
C 16.495129 11.952788 6.293885
C 9.538461 -18.204287 3.440774
C -2.141884 13.810759 14.298814
N -3.498297 -13.902384 11.525791
N 14.643808 9.245679 -7.746437
C -10.772163 14.801578 13.923379
N -2.071332 5.717353 -1.965238
C -27.293327 -16.359922 16.882448
H -1.690580 4.229769 -19.904322
H 2.009506 15.395361 -10.615029
H -5.331339 -6.692823 -6.295183
H 5.803310 -5.130201 -8.500584
H -1.380513 -17.522070 8.057860
H -2.589208 -7.062129 -25.140596
H -9.349073 -9.260205 4.581773
H -0.992456 1.244465 -6.991082
H 13.885271 -7.696230 0.661881