21
H12 C6 O3
O -10.768703 1.123913 2.952116
C 20.020233 6.479089 18.953445
C 20.019131 16.340471 -20.326916
C -19.645535 -12.812013 -23.796656
O -8.053254 6.127303 -27.327557
C -27.709696 -4.021615 6.304823
C 13.907814 15.598838 11.415168
C -4.040145 -5.159016 1.185598
O 15.786265 -18.228386 20.498512
H -27.585249 -7.402394 -2.608881
H 18.469366 9.516765 -19.700945
H -26.162340 -3.124222 7.332981
H 20.462576 -7.420860 11.965306
H 14.509347 -1.188255 4.722645
H 6.058289 2.623613 -3.965130
H -11.353875 -10.880623 2.949710
H -9.904945 19.363750 24.137085
H 3.990034 -4.652230 -0.231069
H 8.615037 -6.340441 5.073726
H 9.403366 -9.206519 -22.458139
H -6.017668 13.262902 2.924225