17
H8 C7 O2
O -2.476994 10.035164 -1.827892
C -9.608646 7.942466 26.027948
C -2.940472 15.859035 1.023904
C -17.829639 -7.383044 2.533993
C 12.555801 -13.285559 12.307083
C 20.412239 -14.181953 1.761650
C -9.597979 -20.110924 -19.615910
C 3.759984 -9.374447 -11.866540
O -5.471481 -12.083827 15.700248
H 8.526664 20.617186 -8.485306
H -6.636228 2.715777 10.692901
H -5.506979 6.244714 2.238430
H -1.392440 2.919416 0.712578
H 3.424575 -14.463412 -13.637943
H -0.372124 4.101604 1.046029
H 11.790231 10.591567 -15.590742
H 1.363424 9.856226 -3.020455