17
H8 C7 O2
C 6.135612 14.364556 -31.547882
C 4.746686 46.160698 -8.802112
O 7.696944 -3.767467 -12.623425
C -9.301597 -8.390550 8.675163
C -6.659057 0.541130 -5.403799
O -25.652557 9.753047 16.678989
C 17.299221 1.444230 3.472982
C -1.553972 14.480052 -3.998496
C 8.441799 -28.845459 3.184452
H -5.753647 15.491987 23.023308
H -3.623340 -10.432122 12.095181
H 6.992270 -11.179355 -4.597424
H 0.701713 -15.748947 -9.270392
H 17.615456 -6.181032 9.372415
H 4.537581 -24.133808 -8.288472
H -10.244601 11.872044 -3.109597
H -11.378510 -5.429182 11.139030