19
H10 C7 O2
C -11.946526 -10.203779 13.645737
C 10.471027 4.025879 -15.541540
C -11.234485 -30.266777 8.378137
O -9.332609 -13.388966 -6.584255
C 13.206985 24.025362 -5.816375
O 8.058705 7.982846 34.985809
C 12.729501 8.790678 -42.658836
C 17.032290 -6.487134 -13.822388
C 15.257439 -4.321892 4.949155
H 16.693232 0.574398 -6.174874
H -34.390312 22.747738 11.212313
H -21.406055 -2.423267 -17.307581
H -3.800405 13.515615 -8.010589
H -5.569348 -2.294215 -7.423315
H -6.023013 14.039127 7.621715
H -20.462212 3.197337 13.274677
H 20.472511 -27.105850 25.765686
H 8.114567 -4.314869 -4.607747
H 2.128857 1.907796 8.114288