14
H6 C6 N2
C -2.544023 -7.852998 -5.976415
C 6.124215 -15.002870 4.593840
C 19.303202 -8.981477 25.277769
C 9.658736 -5.469707 -12.570391
C 16.511990 5.712650 -15.661114
N -6.619661 -0.667419 5.433597
C -7.545496 9.156346 -15.898450
N -16.390633 26.045115 28.446758
H -4.714287 6.094505 7.409847
H 22.063929 -17.819059 -10.690260
H 4.876784 8.552370 -16.401985
H 6.517521 -12.131916 13.703939
H -16.152550 3.188881 14.959461
H -31.089771 9.175561 -22.626549