17
H8 C5 O4
O -11.211671 1.685080 0.165561
C 12.194428 25.690123 -5.825989
C -4.710633 -10.231419 14.688142
O 4.469974 -13.842570 12.514734
C -19.498859 -5.773561 -7.443574
O 5.810769 11.059391 -7.694732
C 16.512989 -13.792758 -6.776013
O 5.514244 -7.952943 4.452404
C 25.706638 -0.269531 -3.774222
H 7.526652 -2.889789 -3.421194
H -8.543498 -1.325268 -9.170311
H -6.403033 8.932821 -4.517430
H -12.488825 3.476526 1.989973
H -23.446043 15.798473 4.026312
H -1.578136 -6.710090 18.526623
H 15.808698 -9.876130 0.370874
H -5.663744 6.021614 -8.111135