18
H9 C7 N1 O1
C -16.515903 -3.650749 -17.539495
C -1.695039 0.108470 9.997954
C -17.659241 2.319041 2.006706
C -8.804723 16.453697 -6.238842
C -6.254605 -4.154519 7.458514
O 14.072762 9.417290 10.129001
C 18.867126 -14.782859 4.852891
C 10.223305 14.267225 -16.220522
N -5.180113 -37.467403 -2.638840
H 23.341009 0.524758 9.814264
H -10.249869 -11.901340 -6.000658
H 18.061954 6.066554 8.966325
H -9.328735 1.416656 8.920537
H -9.417933 -2.357330 -21.797773
H -9.590373 40.966873 0.288049
H 1.010942 -8.953982 -0.052878
H 0.049964 -16.872553 -15.038712
H 9.069445 8.600102 23.093452