23
H14 C9
C 11.675306 12.025766 -6.808124
C 11.662763 1.051671 6.689909
C 12.060619 -29.169128 -14.488895
C -3.006229 -3.038357 -1.687277
C -7.610455 -8.263317 8.665040
C -12.974662 0.457351 -7.359942
C 12.101445 10.400436 -6.501785
C -16.660757 0.499934 -5.577548
C -3.983221 -15.343196 8.407656
H 4.426644 -7.341286 -5.085882
H 26.383986 -1.705790 -5.212300
H -0.506217 10.959357 4.470727
H -9.707334 -7.976986 6.985718
H 15.968577 -16.436806 -3.427889
H 1.440854 6.344038 0.663344
H -9.087739 22.192217 -4.862510
H -9.698292 -5.950644 -3.995815
H -4.337919 10.024506 5.759962
H -8.837871 11.242330 -1.550235
H 17.723030 -3.824174 -8.056247
H -7.314828 6.101888 24.310122
H -2.334161 0.896642 -0.001272
H -17.383492 6.853577 8.663225