15
H6 C6 O3
C 7.681079 -16.108206 -29.239180
C -5.082841 -21.854410 -13.305725
C 6.354723 8.912083 -16.009792
C 22.123888 -2.381830 9.266047
O 0.108424 11.847099 3.010429
C -17.868498 8.086614 -5.267518
O -7.390192 1.970891 19.033131
C -8.627888 -0.127623 22.619484
O 14.098393 -7.430402 2.333554
H -32.441341 -1.602256 -14.465186
H 22.489719 14.085311 8.276911
H 4.589510 12.583635 18.060528
H 10.914073 12.992788 -5.881426
H -24.812370 -13.880603 1.925111
H 7.863401 -7.093033 -0.356274