13
H4 C4 N2 O3
O -1.666116 2.861237 -6.174151
C 4.903205 8.007955 1.544090
C 0.244681 -11.447814 11.288936
O -17.298960 -11.158216 5.896244
C -26.080801 -8.938871 -13.202686
N -7.622553 -7.728191 -4.096530
C 6.759441 6.573268 25.230270
N 25.068455 -3.370941 -5.059404
O 3.659815 10.859772 -22.771683
H 18.380592 2.512222 -3.673208
H 4.069376 3.014273 10.621879
H -4.436166 3.294648 14.659956
H -5.980987 5.520699 -14.263740