18
H9 C6 N3
C 26.351267 -40.164848 14.812524
C -20.907854 -4.453341 11.019156
N -11.790362 -17.764795 1.978670
C 6.218667 1.369284 -3.317776
C -5.384829 -0.880651 -7.951398
N -12.347472 28.144476 11.631293
C -7.801547 -13.573821 -7.413974
C 9.496185 -17.915335 -6.962900
N -4.892699 23.559587 -13.587327
H 0.260677 -14.571139 19.871920
H 9.051817 -10.840027 -18.459127
H 13.725072 29.018797 3.541273
H 2.702062 -9.605033 -3.295059
H -21.821659 15.820032 4.121312
H 4.150031 26.939285 -3.942293
H 9.606280 11.498600 -6.959450
H -2.208799 -14.249022 -13.186287
H 5.593083 7.668039 18.099495