20
H12 C6 O2
C 6.255968 -8.680206 13.295990
C 10.737507 20.492670 8.552512
O -9.861942 21.937290 -1.415519
C 1.911914 -0.753454 -8.162072
C -13.029192 -22.423733 -29.817366
C 23.862341 2.898790 -2.528423
O -10.836666 4.823056 -2.199190
C 0.547893 -1.064255 -8.354041
H 2.623517 16.625496 -23.271463
H 11.586051 12.856228 6.525558
H 1.329428 -13.587984 -5.307578
H -5.016116 -18.741886 -3.105307
H -0.517518 22.354834 10.452521
H 6.364882 -6.581378 7.667897
H 2.793038 -19.699650 14.290227
H 7.347193 -4.273954 0.981946
H 2.509132 -8.595811 17.925386
H -30.416002 10.040225 3.804736
H -20.249941 -0.661310 15.364069
H 12.058587 -6.964964 -14.699948