14
H5 C4 N3 O2
C 11.366318 -23.579479 -9.853878
N -11.919641 34.846230 6.313874
C -15.791942 21.299585 1.508716
O -16.989384 26.942726 -1.567946
C 8.419673 -8.556014 -7.249229
N 10.334474 -8.693843 -25.541191
O 13.054548 -12.369446 -2.848686
C 15.799951 1.895306 0.992432
N -15.186715 -15.610478 -0.148788
H -11.466383 -6.141195 -1.446383
H -15.434155 4.266829 9.652585
H 15.611691 -4.583203 14.157054
H 19.236473 -3.408595 -1.305415
H -7.034891 -6.308484 17.336853