15
H8 C4 O3
O 8.197777 1.852781 -10.188000
C -4.106908 -12.528547 7.512486
C -2.443902 1.473212 5.330970
C 3.179553 2.559437 -7.516590
O -17.623493 0.476697 -5.735425
C 5.833834 6.098343 5.032269
O -11.568723 -4.044541 -15.581145
H -22.147825 -33.839024 -3.760666
H 39.168049 18.232796 -0.346009
H -8.551350 28.616774 -11.926184
H -8.641866 -3.964845 -3.828845
H 26.385139 3.631951 30.971685
H -10.283070 12.285843 -14.784506
H 7.181047 -7.984211 27.396729
H -4.578240 -12.866723 -2.576778