13
H7 C4 N1 O1
C -0.940998 -0.257014 1.417460
C 0.357663 0.367535 0.975692
C 0.514409 0.183023 -0.360594
C -0.678354 -0.572078 -0.889438
H -1.181185 -0.027015 -1.680657
H -0.784642 -1.122046 2.096411
H 2.237719 1.199046 -0.780351
H 1.397173 0.683538 -2.117067
H -1.633736 0.451430 1.909977
H 1.042481 0.846584 1.658199
H -0.377489 -1.549571 -1.282937
N 1.604612 0.538431 -1.149128
O -1.557669 -0.741852 0.202426