13
H7 C4 N1 O1
C 0.230909 -0.384271 -1.151542
C -0.536937 -0.335725 1.172669
C 0.580954 0.961237 -0.465768
C -0.559002 -1.155933 -0.104280
H 0.056079 1.664127 1.425326
H 1.137629 -0.949241 -1.419809
H -1.455498 -0.428118 1.739246
H -0.367145 -0.271001 -2.055552
H 0.391417 1.819277 -1.136316
H 1.657516 0.970813 -0.224942
H 0.295263 -0.721156 1.806955
N -0.293853 1.044335 0.704712
O -1.137328 -2.214365 -0.290720