15
H6 C4 N4 O1
N 0.628141 -0.642266 0.985342
C -0.640648 0.979212 2.727644
C 1.011110 -1.226912 -1.203055
O -0.771659 1.102592 1.420600
C 0.091709 -0.258610 -1.632534
N 1.249155 -1.425553 0.129709
C -0.199253 0.372597 0.577744
N -0.495207 0.513260 -0.719795
N -0.167511 -0.092733 -2.898443
H 0.204505 -0.750607 -3.584944
H -0.808965 0.519169 -3.218806
H 1.564934 -1.880768 -1.874615
H -0.936241 -0.059185 3.032497
H 0.454200 1.069612 3.037275
H -1.184291 1.780189 3.221390