16
H7 C6 N2 F1
C -0.318268 0.315298 0.040742
C -0.168462 -0.364679 1.173050
C 1.518482 -0.666933 -1.233815
N 2.025479 -1.650026 -0.450354
C 1.548563 -1.942557 0.702267
C 0.495055 0.185626 -1.057988
N 0.618953 -1.363824 1.509903
C -1.562648 1.483153 0.048753
F 2.042611 -3.009046 1.213905
H 2.067997 -0.570827 -2.180131
H -1.360628 2.033067 0.884420
H -1.405498 1.868419 -1.035186
H -0.849336 -0.110826 2.065267
H -2.461431 0.668919 0.316224
H 0.310591 0.913428 -1.877747
H -2.501444 2.210812 -0.119309