14
H6 C6 O2
O -0.807533 1.491519 1.124388
C 1.597880 -0.674194 -0.141987
C -1.180925 0.579013 -1.059302
O -1.982016 1.468150 -1.292215
C -0.431826 -0.901792 0.898116
C -0.304008 0.500191 0.241950
C 1.042695 0.545082 -0.184437
C 0.729914 -1.528089 0.460663
H -1.052908 -0.211449 -1.716595
H 0.894062 -2.618528 0.774435
H -1.184459 -1.176921 1.485880
H 2.571903 -1.059978 -0.569062
H 1.610415 1.514402 -0.616601
H -1.503215 2.072568 0.594763