16
H7 C6 N1 O2
C 1.557863 -0.779757 1.454689
C 1.041571 -0.859150 0.145205
O -0.846825 0.006802 2.030187
C 1.230552 0.451568 -0.477052
C -0.685176 0.161705 -1.795361
N 2.029793 -0.626243 2.476035
O 2.013530 1.231919 -0.873546
C -0.168734 0.045101 -0.351006
C -1.189771 0.297331 0.679149
H -1.097992 -0.788830 -2.030792
H -2.080578 -0.295601 0.430714
H -1.382132 0.987193 -1.893762
H 1.175829 -1.816866 -0.297479
H -0.229472 0.334452 2.336150
H 0.125733 0.303164 -2.509182
H -1.494169 1.347170 0.676079