20
H11 C7 N1 O1
C 0.843217 -0.143597 -2.384309
C 1.181585 -1.120704 -0.297340
C 0.516991 -0.011855 0.375294
O -0.115150 2.292485 -0.121922
C 1.315499 -1.195462 -1.679170
C -0.793130 -0.481028 1.170754
C 0.239877 1.154741 -0.528878
N 0.431457 0.970395 -1.909314
C -1.535868 0.679725 1.921942
H -1.550259 -0.596789 0.270217
H -1.840233 1.419065 1.221358
H 0.206977 1.745675 -2.411594
H 0.823942 -0.166758 -3.492688
H -0.849045 -1.583143 1.200005
H 1.518569 -1.943132 0.364098
H -0.177462 -0.899863 2.231942
H 1.697365 -2.096776 -2.120254
H 1.211160 0.499572 1.103644
H -0.829461 1.219863 2.525797
H -2.296008 0.257607 2.560401