15
H7 C5 N1 O2
C -1.309332 -0.092673 -0.794408
C 1.332129 1.060543 1.845827
C -0.616552 0.096672 0.512838
O 1.079239 -1.888330 -1.878493
C 0.827250 0.609223 0.493712
O 2.406038 0.741191 2.297308
C -0.032260 -1.514507 -1.865615
N -0.953987 -0.940240 -1.711774
H -1.149200 0.791470 1.121808
H 0.860073 1.503207 -0.171492
H -2.132159 0.503410 -1.065877
H 0.488692 1.663581 2.451604
H -0.674505 -0.908115 0.980782
H 1.503601 -0.148855 0.107256
H -1.629037 -1.476578 -2.323471