17
H8 C6 O3
O -0.246069 -0.009389 -2.226997
C 0.252478 1.332929 0.891565
C 0.566116 0.038358 -1.125840
C -1.177827 -0.777027 0.552395
C -0.064861 -0.134283 1.204367
O -0.662643 1.860599 -0.016416
C 0.667386 1.379764 -0.464831
C 0.118609 -0.969476 0.040359
O 0.904896 -2.165933 0.000972
H -1.601294 -1.720434 0.977972
H -0.969082 0.619984 -2.073533
H 1.327155 2.238279 -0.806067
H -1.946804 -0.190122 0.155169
H 0.529908 1.991437 1.734398
H 1.587915 -0.222600 -1.470688
H 0.475573 -2.743071 0.423266
H 0.238573 -0.529004 2.203863