23
H14 C9
C 1.049798 1.484816 -1.217613
C 2.520215 1.675379 -0.691876
C -1.213456 -0.887407 0.675827
C 0.389183 0.337170 -0.582424
C -2.485650 -1.350334 1.147558
C 0.677246 -1.012498 -0.840029
C -0.729364 -1.124730 -0.730280
C -0.844997 0.513625 0.346830
C -0.321308 -0.386740 1.640359
H -1.453633 1.384136 0.426171
H 1.359899 -1.539494 -0.037824
H 0.550605 2.394331 -0.969103
H 3.104973 0.726671 -0.905098
H -2.517666 -2.424563 1.245038
H -1.440715 -1.546310 -1.364700
H 0.703154 -0.691499 1.760713
H 2.479394 1.797070 0.389665
H 2.982047 2.466503 -1.166297
H -0.690251 -0.069793 2.634805
H 1.058088 1.406754 -2.323487
H 1.079351 -1.126988 -1.887546
H -2.921233 -0.888548 2.044895
H -3.335674 -1.137553 0.404414