18
H9 C7 N1 O1
C -0.672719 0.053899 -1.507207
C -0.331810 0.532624 1.740156
C 0.143298 -0.985926 -1.422940
C -0.803135 1.031404 -0.340038
C -1.599691 0.538714 0.976892
C 1.135520 -1.157136 -0.335817
N 0.396445 0.969966 0.605859
C 1.509642 0.216060 0.208788
O -0.015919 0.324723 2.844425
H 0.661256 -1.792704 0.496037
H -2.376696 1.123760 1.238932
H 2.167047 0.123369 1.016072
H 0.109306 -1.730766 -2.235130
H -2.007499 -0.459506 0.860124
H 2.107841 0.742811 -0.602800
H -1.011913 1.983530 -0.595542
H 1.928477 -1.773442 -0.639852
H -1.339446 0.258650 -2.307964