15
H6 C7 O2
O 1.288138 -1.397888 0.431543
C 0.707227 -1.802868 1.607908
C 0.125860 1.471195 -1.712147
C -0.334646 2.517234 -2.038632
O -1.635180 0.653723 0.496785
C -0.432576 -1.110508 1.810411
C -0.624182 -0.287591 0.794679
C 0.403142 -0.390126 -0.129473
C 0.836516 0.243740 -1.420497
H 1.899716 0.407557 -1.390813
H 1.202772 -2.585233 2.105841
H 0.624185 -0.514184 -2.171113
H -2.160248 0.641790 1.271900
H -1.069683 -1.290661 2.657228
H -0.831044 3.443764 -2.313661