21
H12 C9
C 1.373697 0.536653 -0.140970
C 0.555778 -1.378966 0.033756
C -1.443114 0.002929 -0.032935
C 0.400523 1.543422 -0.122043
C 1.319458 -0.719767 -1.099135
C -0.898110 1.271523 -0.774555
C -0.885006 -1.262223 -0.435726
C 0.649459 -0.227912 1.079817
C -0.779248 0.102394 1.425198
H -2.547714 -0.053888 0.020276
H 0.808417 -2.437007 0.250054
H 2.392542 0.953996 0.027111
H -1.122891 -0.723084 2.128273
H 0.594681 2.406467 0.492839
H -1.444107 -2.074593 -0.953056
H 2.346685 -1.172412 -1.232853
H 1.368424 -0.450343 1.936976
H -1.134487 1.076862 1.860074
H -0.828347 1.120458 -1.832994
H 0.877865 -0.586576 -2.093701
H -1.604475 2.072029 -0.536427