16
H7 C7 N1 O1
O 1.941272 -0.459893 -0.131791
C 0.241952 -0.353933 2.814910
C -0.624034 0.905144 0.698465
C -0.101158 0.191477 1.817681
C -1.044459 0.923758 -1.825612
N -1.587782 1.574477 -2.665175
C 0.897864 -0.363194 -1.033006
C -0.310501 -1.266089 -0.781363
C -0.457108 0.259878 -0.684428
H -1.701446 1.134575 0.777476
H 2.277569 0.377993 0.184016
H -0.158537 1.865638 0.684505
H 0.669060 -0.929775 3.654514
H -0.714563 -1.780813 -1.610380
H -0.664699 -1.740479 0.099168
H 1.336572 -0.338782 -1.998945