20
H11 C6 N1 O2
O -0.990036 -2.542272 -0.819624
C -0.116633 -0.798701 0.446143
C -0.447016 0.333479 -0.549511
C 0.158765 1.658311 -0.232494
C -0.137500 2.774596 -1.195459
C -0.360065 -0.735759 1.834791
N 0.976196 -2.993285 0.142753
C -0.067594 -2.218378 -0.158464
O 0.911246 -0.604673 1.407938
H 0.267710 3.672545 -0.977358
H -1.265593 2.837079 -1.294539
H 1.269531 1.553176 -0.046722
H -0.052720 0.008844 -1.527938
H -0.962616 0.092511 2.159631
H -1.476054 0.403305 -0.604336
H -0.204870 2.019254 0.869937
H 0.275509 2.512052 -2.156826
H 1.743252 -2.485270 0.545026
H 1.133130 -3.839535 -0.285411
H -0.654663 -1.647285 2.442494