19
H11 C6 N1 O1
C -1.312663 0.617062 0.008895
C 1.246044 0.461604 1.488649
C -2.699598 0.443378 -0.588596
C 1.030942 -0.331824 0.307731
N 1.924141 -1.523051 0.093830
O 0.822533 1.595343 1.750578
C -0.369958 -0.525993 -0.248111
C 2.226052 -0.341943 -0.669102
H 2.590090 -1.615537 0.909930
H -3.337834 1.261098 -0.565270
H -1.422270 0.778535 1.037303
H -2.605107 0.318047 -1.747323
H -3.172085 -0.454656 -0.268339
H -0.380464 -0.720256 -1.349816
H 2.023111 -0.026588 2.189730
H 3.107934 0.265687 -0.397643
H -0.776463 -1.412692 0.217152
H 2.053516 -0.369015 -1.755622
H -0.947905 1.580781 -0.413989