20
H11 C5 N1 O3
C 2.074506 -0.024018 -1.344278
C 0.120772 0.166686 0.460790
O -0.679726 0.793115 -0.532330
C -1.634076 -0.055181 -1.358548
O -2.647344 0.860462 -1.745700
C 1.567022 -0.147101 0.041088
N -0.575606 -0.523531 1.386511
C -0.163789 -0.407841 2.791182
O 1.217776 1.008955 0.743344
H 2.073653 -1.045961 -1.831372
H -1.293161 0.220772 -2.407267
H 1.379013 0.620832 -1.943743
H 3.026700 0.463768 -1.408517
H -2.341897 -0.495896 -0.408608
H -0.810932 0.315535 3.308279
H 2.064964 -0.898814 0.604872
H -0.321499 -1.388228 3.271801
H -1.162219 -0.964930 -1.346327
H -2.704400 1.609168 -1.231187
H 0.810235 -0.107836 2.950024