24
H15 C7 N1 O1
C -0.693872 1.390733 -1.892655
C 0.535179 -0.589697 1.341239
C -1.665417 1.485033 -3.040953
C 2.195088 -1.479561 2.325588
C 0.444483 -2.405075 2.179477
N -0.561538 0.324526 -1.032766
C -1.964726 2.229180 -1.781155
C 0.346931 0.372994 0.106953
O 0.008701 -1.735851 1.000625
H 2.640448 -2.251322 1.694798
H 0.262388 1.955438 -2.096066
H 1.263414 -0.284247 -0.473154
H 2.690938 -0.554118 2.050842
H -1.466229 2.032075 -3.982774
H -2.249894 0.509197 -3.218831
H -0.384239 -0.521441 -1.630205
H 0.879022 1.279600 0.195002
H 0.314441 -0.068277 2.217614
H -1.859091 3.259931 -1.743842
H -2.675328 1.764049 -1.127769
H 0.606887 -3.465564 1.771149
H 2.231564 -1.722363 3.369169
H -0.718988 0.887762 0.758361
H -0.180096 -2.413015 3.009336