23
H14 C7 O2
C 0.554076 -0.903524 1.265494
C 0.004584 1.454879 1.626572
C -0.260668 0.182828 0.824581
O -0.105043 -0.259965 -2.356966
C -1.023011 1.620047 2.844370
C 0.284212 -1.148827 -1.248688
O 1.810878 0.521464 -0.300442
C -0.360192 -1.054830 -3.527218
C 0.739775 -0.287667 -0.094704
H -0.569514 -1.818912 -1.002698
H -0.110352 2.375787 1.059166
H 1.655225 0.986076 -1.207146
H -0.931926 0.752796 3.525184
H 1.032596 1.576206 1.983187
H 0.486925 -1.564417 -3.816680
H -0.608061 -0.377031 -4.353445
H 1.113484 -1.728363 -1.499916
H -2.042946 1.577377 2.505160
H -1.232965 0.035994 0.534525
H -1.194027 -1.749539 -3.412493
H 1.447585 -0.816818 1.857654
H -0.776658 2.485939 3.425417
H 0.086005 -1.859502 1.369104