13
H5 C4 N3 O1
N -0.425109 -1.082758 -0.375969
C 0.240296 -0.957860 -1.596783
C 0.488163 1.102320 0.145023
O 0.128398 -1.767435 -2.464759
C -0.312169 -0.093717 0.465085
N 1.028939 0.180234 -1.804300
C -0.976755 -0.147883 1.787663
N 1.116938 1.217199 -0.916570
H 1.506552 0.278206 -2.579415
H 0.661207 1.937570 0.835232
H -0.790174 0.707512 2.487200
H -0.644779 -1.139735 2.344948
H -2.021519 -0.233648 1.672623