21
H12 C6 N2 O1
C -0.063330 -0.361789 1.275821
C -0.957783 -1.028502 -0.946498
C 1.181504 -1.223433 1.184672
N 0.541731 0.925654 -0.618960
C 0.225409 1.616744 -1.915883
C -0.573759 0.126207 -0.015120
O 1.624439 -1.593000 2.542702
C -1.736461 0.963726 0.154225
N -2.666185 1.681006 0.493971
H -1.685946 -1.634455 -0.489423
H -1.387648 -0.612045 -1.887814
H 0.177582 0.456312 1.957771
H -0.035690 -1.617229 -1.213498
H 0.185089 0.913534 -2.718740
H -0.851653 -0.981625 1.890376
H 0.977684 -2.151096 0.690459
H -0.681625 2.193400 -1.956466
H 1.943397 -0.870628 2.905086
H 1.067011 2.333434 -2.069462
H 1.956788 -0.760922 0.686950
H 0.759456 1.624706 0.049863