15
H6 C6 O3
O -0.623074 1.413458 1.387123
C 0.449667 -1.640469 -1.715303
C -1.667467 1.069028 0.432643
C 0.215891 0.577160 0.841359
O -1.757075 -0.878614 -1.976870
C -0.576879 0.141428 -0.146993
O 1.601710 -1.578279 -1.305931
C -0.740841 -0.781302 -1.321097
C 1.630369 0.419289 1.395775
H 0.143458 -2.280124 -2.572820
H -2.555827 0.587179 0.857185
H 2.185601 -0.237430 0.704822
H -1.987502 1.868071 -0.282832
H 2.091409 1.379397 1.434983
H 1.590548 -0.058805 2.267952