18
H9 C6 N1 O2
C -0.051678 0.536200 -0.238071
C -0.141408 1.503525 1.010575
C 1.384463 0.560198 -0.923255
C -0.441360 -1.720228 1.067370
O 0.628812 2.386596 1.207516
C 1.504416 -0.828496 -0.396425
C -1.337485 0.667290 -1.084104
N 0.195950 -0.843044 0.122652
O 2.319076 -1.722062 -0.344381
H -0.984712 1.200209 1.675834
H -0.398461 -1.430680 2.095148
H -1.413942 -1.893047 0.762937
H -1.301683 -0.006801 -1.882956
H 0.082791 -2.723779 1.026149
H 2.038132 1.331265 -0.569865
H 1.295283 0.621725 -2.017038
H -2.210895 0.421741 -0.497756
H -1.380038 1.736839 -1.357613