14
H5 C5 N3 O1
N -0.548467 2.575216 -1.867144
C -0.015743 1.622223 -1.418499
C 0.119640 -0.089689 0.472746
N 0.487083 0.090700 1.800778
C 0.672420 0.430592 -0.889096
C -0.888309 0.408554 1.402157
C 0.097168 -1.452427 -0.294071
N 0.537595 -0.784775 -1.455189
O -0.168766 -2.570912 0.020394
H 0.732738 -1.179232 -2.316570
H 0.615685 -0.746135 2.287564
H -1.676790 -0.191648 1.829994
H 1.784302 0.715836 -0.744652
H -1.136284 1.398446 1.379083