18
H9 C7 N1 O1
C 0.103319 -1.089184 -0.397918
C -0.195184 -0.079393 0.839816
C -1.193755 -0.338124 -0.181981
C 0.110912 1.123726 -1.008773
N -1.209951 0.754753 -1.185978
C -0.227795 -0.478196 2.289826
O 1.096562 -0.882216 -1.368527
C 1.042655 0.359626 -2.014039
C 0.559221 1.114322 0.282263
H -0.730772 -1.412296 2.430530
H -1.727058 1.606927 -0.666591
H 2.062310 0.680422 -2.081287
H 1.067979 1.867273 0.923727
H -0.793882 0.254621 2.865838
H 0.590564 0.298588 -3.057071
H -2.089307 -0.861393 0.005887
H 0.766564 -0.625079 2.712567
H 0.111871 -2.192018 -0.166414