21
H12 C8 O1
C 1.482783 -0.378849 -0.177672
C 0.615640 -0.909350 0.858315
C 1.382825 0.322875 1.211814
C -1.975701 -1.217165 -0.014173
C -0.919161 -0.847371 1.059851
C 1.086862 0.285321 -1.424391
O -0.292389 0.450627 -1.736481
C 0.568713 1.604988 -1.534540
C -1.905293 0.153352 0.580775
H 0.742308 2.269376 -2.426881
H 0.372488 2.187424 -0.613421
H 0.933953 1.293945 1.229872
H -1.531335 0.918142 -0.085537
H -1.176510 -1.265855 2.114114
H 2.448068 -1.002666 -0.284331
H -1.658405 -1.284085 -1.023271
H 1.731807 -0.027271 -2.310481
H -2.770505 -1.945349 0.302040
H 0.951449 -1.886293 1.390664
H -2.683650 0.428927 1.234007
H 2.272371 0.057639 1.932109