23
H14 C8 O1
C 1.037961 -0.137264 1.684988
C -0.782794 -0.337640 -1.286641
C -0.795790 0.973369 -0.622852
C -1.857728 1.933281 -1.125281
C 1.423578 -1.366120 -0.499865
C -0.509163 -0.037967 1.702682
C 1.825042 -0.259749 0.413129
O -0.948843 1.018315 0.837549
C -0.009280 -1.530202 -0.868733
H -1.844382 2.107128 -2.189049
H 2.921306 -0.349241 0.589533
H -0.880890 0.185828 2.638296
H 1.799688 0.775469 -0.149257
H -0.994149 -0.956313 1.378361
H 1.344132 -0.942288 2.335610
H -1.374871 -0.389392 -2.217697
H -2.867981 1.526455 -0.878075
H -0.453367 -2.154561 -0.080659
H -1.839218 2.895242 -0.580419
H 2.138149 -1.953529 -0.849096
H -0.066594 -2.161781 -1.737056
H 1.369938 0.760293 2.267957
H 0.189176 1.373366 -0.822605