18
H9 C6 N1 O2
C -2.115910 0.186926 -0.721470
C 0.709922 0.533633 -0.848692
C -1.158819 -0.513862 0.458126
C 0.153543 -0.319063 0.329396
O 2.426395 -0.715369 0.883460
N -1.472286 1.295986 0.030036
C -0.309858 1.682084 -0.690354
C 1.141956 -1.159606 1.112513
O -1.760161 -1.428900 1.162374
H -0.496650 2.140681 -1.728249
H 0.619217 -0.016538 -1.757549
H 1.692920 0.881572 -0.641561
H 0.825996 -1.080039 2.216697
H 0.125695 2.526077 -0.194963
H 1.001369 -2.191048 0.840524
H 3.091827 -1.279721 1.424793
H -3.126500 0.121812 -0.388339
H -1.942785 0.037283 -1.708240