19
H10 C5 N2 O2
O -0.333840 0.580887 -2.039711
C -0.876710 -0.533381 -1.537685
C 0.966317 0.451992 1.222469
N 0.244651 -0.544257 0.481822
C 2.369101 0.329177 1.487257
O 3.052427 1.142195 2.159346
C -2.190271 -0.605984 -1.743408
C -1.089040 -0.746349 -0.067555
N 0.278860 1.437353 1.667215
H 2.852199 -0.451199 1.077588
H 0.780549 -1.417919 0.367972
H -2.714787 -1.485722 -2.199290
H -2.852772 0.219609 -1.708265
H 2.606853 1.607354 2.851609
H -1.453147 -1.722255 0.245667
H -0.233094 -1.408474 -1.951912
H 0.762413 2.206483 2.110168
H -1.671848 0.023496 0.527867
H -0.481584 1.297468 -1.343139