19
H10 C7 O2
C -0.155452 1.564815 0.898488
C -0.367736 0.008349 1.008551
C -0.343533 -2.210650 -0.312189
C 1.259093 -0.497575 -0.935149
C 0.913655 1.761495 -0.136647
O 0.751515 -2.353461 0.421885
C 1.220160 0.859430 -0.666723
O -1.503345 2.134376 0.508459
C -0.200549 -0.669442 -0.402287
H 0.367272 -0.368012 1.690565
H -0.370134 -2.716869 -1.324932
H 0.089823 1.996657 1.909623
H 1.413147 -0.898078 -1.926097
H 1.154283 2.663656 -0.537053
H -1.361930 3.005783 0.428917
H -1.294818 -2.595824 0.188821
H -0.809824 0.153210 -1.196134
H -1.354275 -0.309663 1.444320
H 2.218502 -0.738568 -0.384424