23
H14 C8 O1
C -0.956982 -1.391580 -0.323098
C 0.230552 1.972010 -0.451324
C 0.464994 -1.115090 -0.814085
C -1.554112 0.683681 0.993880
C 1.262210 1.095574 0.205138
C 0.694559 -2.489458 -0.930542
C 1.325128 -0.322999 0.237620
C -1.063582 2.067851 0.534379
O -1.714233 -0.178682 -0.131194
H 1.164994 -0.747739 1.206335
H 0.564205 2.953164 -0.550942
H -1.621231 -1.877701 -0.984437
H -0.043827 1.543108 -1.477238
H 2.406102 -0.530949 0.062188
H 1.992047 1.632633 0.795738
H 1.437562 -2.926164 -0.220954
H -0.965853 -2.051566 0.592634
H -0.912898 0.186048 1.807345
H 0.433177 -3.056064 -1.742136
H -0.877242 2.661204 1.352711
H -2.498381 0.891364 1.447259
H -1.871362 2.582537 -0.022188
H 0.494345 -0.608936 -1.717070