16
H7 C7 N1 O1
C -0.610226 0.088528 -0.406118
C 0.366607 0.688790 0.645593
C 1.893440 -0.924468 2.099930
N -1.961011 0.555319 -0.643666
O 2.014829 1.925133 -0.693705
C -1.798722 -0.800318 -0.251212
C 1.129672 -0.202537 1.524677
C 0.430253 0.218159 -1.493745
C 1.151796 1.126407 -0.568120
H -0.162452 1.438866 1.285933
H 0.892015 -0.704070 -1.753251
H -1.993648 -1.140238 0.725428
H 0.031141 0.710124 -2.462982
H 2.503559 -1.540442 2.602395
H -2.300108 1.122720 0.151157
H -2.019377 -1.583302 -0.975969