20
H11 C8 N1
C 0.476035 -1.949803 0.343165
C 1.354412 1.158732 -0.387777
C -0.235938 -0.774565 0.054048
N 1.097018 -2.998840 0.638877
C 1.222355 1.013575 1.101826
C 0.012818 1.448426 -1.141985
C -1.664054 -1.171457 -0.312445
C -0.119594 0.175449 1.269895
C 0.458700 0.058752 -1.003802
H 2.237684 1.354097 -0.872988
H -2.267182 -0.191677 -0.532420
H 2.131310 0.459577 1.361172
H -0.049648 -0.381095 2.308676
H -1.690312 -1.732039 -1.249978
H 0.175528 1.881669 -2.119105
H -0.979260 0.825395 1.293724
H -2.148701 -1.695653 0.397961
H 0.825046 -0.501323 -1.913755
H -0.847381 1.880291 -0.652074
H 1.245973 1.970932 1.654106