15
H6 C6 N2 O1
N 1.711526 -1.064122 1.001663
C 0.657948 -0.293790 0.463462
O 0.386741 0.794197 1.232855
C 2.205213 -0.232613 1.890079
C -2.073752 0.232474 -1.635645
C -0.110074 -0.748378 -0.491876
C -3.253839 0.292486 -1.624242
C -0.580960 0.078441 -1.670677
N 1.396092 0.843978 2.136259
H -0.130319 1.052636 -1.457321
H -4.218067 0.367051 -1.724260
H -0.280052 -0.314375 -2.656836
H 3.067548 -0.394605 2.476349
H 1.383709 1.650529 2.650676
H -0.387133 -1.797066 -0.522622