20
H11 C6 N1 O2
C -0.041036 -0.594162 -0.288466
C 0.688554 1.690575 0.500508
C -0.398064 -1.396527 -1.468977
C 0.602400 0.745677 -0.706381
N -0.484675 1.679997 1.189061
O 1.663526 2.295781 0.744280
C 1.016472 -1.354923 0.638976
C -1.588566 0.934511 0.713112
O -1.239075 -0.428668 0.559899
H 0.548645 -2.194050 1.081104
H 1.381017 -0.728087 1.432216
H -1.197741 -0.877817 -1.980523
H -0.836190 -2.362319 -1.115537
H -1.961722 1.329616 -0.170555
H 1.886498 -1.673792 -0.054068
H -0.442371 2.217766 2.120856
H 0.040851 1.218504 -1.454625
H 0.349335 -1.525556 -2.103025
H 1.610144 0.649112 -1.152633
H -2.318962 0.859632 1.507868