19
H10 C7 O2
C -1.041962 -0.748005 0.438144
C 1.515195 -0.685228 -0.434174
O -0.074100 -0.892110 1.441418
C 1.160624 -0.316872 1.096006
C -0.065291 1.435442 -0.417929
C -0.733700 -1.416824 -0.834347
C -1.212600 0.753899 0.296776
C 1.276426 0.767631 0.022922
O 0.574072 -1.259715 -1.252244
H -2.000154 -1.148605 0.935249
H 0.007028 2.469842 -0.166714
H -0.202089 1.374038 -1.454690
H -2.169615 1.067563 -0.249961
H -0.830938 -2.504081 -0.660268
H -1.335712 1.270379 1.353995
H 2.170826 1.371609 0.055741
H 1.878413 -0.376933 1.900230
H -1.492959 -1.166593 -1.580624
H 2.487815 -1.092923 -0.539792