19
H10 C6 O3
C -0.918040 0.924000 -1.085215
C -0.751718 1.601231 0.245319
C 0.108845 -0.099025 -0.617760
O -0.623416 1.495414 -2.262443
C -0.101751 -0.381211 1.921023
O 1.233766 0.566587 -0.318004
C 0.214665 -1.445386 -1.159279
C 0.293607 0.698455 0.881607
O 1.077729 -1.225963 2.275338
H 1.012692 -2.081482 -0.685646
H 0.372524 -1.372857 -2.257653
H 0.992172 1.421513 1.526240
H -1.914129 0.426402 -1.143078
H -0.453643 0.031971 2.809763
H -0.809230 -1.027431 1.520838
H 1.709666 -1.096294 1.577900
H 0.378425 1.642731 -2.207995
H -0.636424 -2.057373 -0.961427
H -1.187899 2.464497 0.646246