17
H8 C8 O1
C 0.636294 1.234583 -0.402370
C 2.429818 -2.042451 -0.667064
C 0.446651 -0.364080 -0.062516
O 1.534388 1.403551 0.755781
C -1.852849 0.524200 0.098582
C 1.531852 -1.252428 -0.367674
C -1.026681 -0.777498 -0.280486
C -0.606368 1.387066 0.559879
C 0.485535 0.547581 1.209691
H 3.159982 -2.595510 -0.954773
H -1.072207 -1.097896 -1.392969
H -2.289352 1.027167 -0.854654
H 0.530346 0.152559 2.290228
H -2.507255 0.453435 0.822350
H -1.277714 -1.614397 0.377816
H -0.797475 2.432439 0.827747
H 0.967757 1.694162 -1.338486