24
H16 C7 O1
C 1.308370 -1.850528 0.069993
C -1.192563 -1.162695 0.592178
C 0.910207 0.105906 1.553487
C 0.358649 0.277756 -0.977080
C 0.103523 1.798848 -0.854400
C -1.562859 1.968610 -0.977512
O -1.631975 1.636548 0.284748
C 0.309885 -0.666626 0.268701
H 0.878140 -0.554298 2.420002
H 0.646579 2.195081 -0.092474
H -1.229677 -2.179872 -0.133469
H -1.099483 -1.803348 1.444826
H -1.933213 -0.692220 -0.241204
H 0.962223 -2.384676 -0.824577
H 0.247381 0.947788 1.816776
H -2.034923 1.381183 -1.766599
H 1.310382 -2.507360 0.938060
H -1.874976 3.057995 -1.105680
H -0.272176 -0.214056 -1.730234
H 2.340599 -1.503609 -0.109774
H 1.965005 0.441644 1.404986
H -1.620771 -0.357302 1.209477
H 1.388822 0.239966 -1.307253
H 0.395642 2.290090 -1.762320