17
H8 C6 N2 O1
C -0.586202 -0.157599 0.999077
O -1.110690 1.075959 -0.451917
C -0.896695 -1.441763 -0.118642
C -0.029633 0.434381 -0.453448
N 0.120801 -1.364887 0.910641
C 1.217153 1.337299 -0.693537
C -0.290907 -0.818388 -1.337664
N 0.319042 1.305178 3.107997
C -0.044410 0.734852 2.106689
H 0.668650 -1.312223 -1.658538
H -1.637819 -2.182558 -0.108346
H 2.101660 0.714016 -0.420666
H -1.764830 -0.208442 1.217468
H -0.280067 -1.912381 1.674618
H -0.896520 -0.585265 -2.163430
H 1.158439 2.195619 -0.064013
H 1.281606 1.633756 -1.737265