15
H6 C7 O2
O -1.447032 0.698025 1.090597
C -0.217164 -0.207969 -1.514063
C 0.958984 -0.564927 -0.603350
C -0.933499 -0.576094 1.018526
C -0.078371 1.169879 -1.037740
O -0.402293 2.256625 -1.505432
C -0.065703 0.545215 1.416997
C 0.844617 0.742012 0.245537
C -0.443915 -1.152521 -0.290781
H -0.412189 -0.603049 -2.529785
H -1.253438 -1.366528 1.686854
H 0.229128 0.855171 2.380973
H 1.875587 -1.169835 -0.743654
H 1.765907 1.424271 0.387697
H -0.705231 -2.141022 -0.640464