25
H16 C9
C 0.925976 -0.212457 -0.190934
C 0.050873 -0.624589 1.053009
C -1.281314 0.141557 0.653567
C -0.645352 -1.914757 0.407672
C -1.332765 -0.872755 -0.609977
C 1.616721 1.137680 -0.077103
C -0.103096 -0.406130 -1.390301
C 2.526630 1.474620 -1.283049
C -2.455922 0.077426 1.652498
H -1.153865 1.160610 0.277225
H 0.432631 -0.631185 2.000077
H 2.157703 1.202145 0.794120
H 0.306325 -1.191696 -2.092276
H 3.425442 0.767064 -1.306266
H 0.856709 1.991569 -0.082212
H -0.263442 0.443350 -1.964494
H -0.018978 -2.651158 -0.005373
H -3.268095 0.494164 1.235442
H 2.990752 2.535411 -1.213121
H -2.213213 -1.092113 -1.206487
H -2.664857 -0.932005 2.026415
H -2.183077 0.697526 2.528654
H 1.748112 -0.975595 -0.255906
H -1.383884 -2.263262 1.093215
H 2.110209 1.500066 -2.274791