15
H7 C5 N1 O2
C -0.595044 -0.844533 -0.778129
C 1.338344 0.243930 0.667826
C -1.973164 -0.526226 -0.186412
N -1.343912 0.681531 0.500378
C 1.182593 1.250441 -0.408016
O -0.179346 -1.636658 -1.458160
C 0.020135 0.298609 0.029602
O 2.134334 -0.896675 0.488939
H -1.430120 0.618006 1.472644
H -2.732294 -0.266690 -0.877811
H 1.443153 0.630637 1.687507
H 1.610253 1.028411 -1.372354
H -2.365275 -1.310416 0.550963
H 1.878299 -1.345070 -0.222648
H 1.035892 2.296278 -0.148239