15
H6 C4 N2 O3
C 0.550841 -1.530281 -1.411976
C -1.414654 0.605701 1.138618
O -2.615951 0.361397 1.461073
C 1.547683 0.484778 -0.385185
C -0.746093 -0.225698 0.093529
O 2.573737 0.253372 -1.014772
N 0.366152 -0.347719 -0.509031
N -0.741655 1.651301 1.705304
O 1.490687 1.411532 0.525002
H -1.474022 -1.000864 -0.195381
H -0.173696 -1.407398 -2.191482
H 0.180959 2.072473 1.322303
H -1.309069 2.229278 2.219437
H 0.350204 -2.492294 -0.819710
H 1.517900 -1.505748 -1.837294