15
H6 C5 N2 O2
C 0.477962 -0.409980 -0.738942
O 0.804902 -1.404884 0.309326
C 0.718128 -0.913515 -2.081128
O -1.393922 2.126676 0.905180
C -0.796740 0.339296 -0.634384
C 1.572173 -0.123099 0.198927
N 0.989089 -1.229823 -3.136970
C -1.094571 0.913372 0.725316
N -1.122436 -0.019341 1.734165
H -0.768097 1.237260 -1.300800
H -0.799063 -0.920113 1.603837
H -1.622943 -0.298187 -0.942181
H 2.648791 -0.302380 -0.181913
H -1.352607 0.281495 2.611727
H 1.492343 0.590322 1.011240