18
H9 C6 N3
C 0.922750 -0.808549 -0.051381
C -1.085109 1.679908 -0.683907
C -1.166345 -1.806387 0.616401
C 1.500057 -0.255857 -1.341440
C -0.577369 -0.673458 -0.167753
N -1.098065 0.651522 0.319270
C 1.457208 -0.117562 1.223227
N 1.839479 0.071834 -2.306818
N -1.584962 -2.664960 1.169353
H -1.728360 1.398106 -1.559805
H -1.557765 2.556307 -0.334564
H -0.888461 -0.899497 -1.173107
H -0.110945 1.917531 -1.068903
H 1.144495 0.992378 1.281368
H 1.271259 -1.829693 -0.009338
H 2.544636 -0.123476 1.224290
H 1.005110 -0.592221 2.141841
H -1.887623 0.504071 0.721270