12
H3 C3 N3 O3
O -0.332489 1.748911 2.331532
C -0.539993 -1.310986 -1.281643
C 0.015842 1.029184 1.263154
O -1.603638 -1.855873 -0.901833
C 0.068016 -0.274602 -0.412510
O -0.678393 0.102630 0.717414
N 1.131312 0.284351 -0.498037
N 0.237148 -1.636037 -2.309211
N 1.199185 1.166958 0.622403
H -0.190498 -2.363210 -2.854769
H -1.223246 1.403631 2.549545
H 1.916755 1.705048 0.773980