16
H7 C6 N1 O2
O -1.392062 1.539546 -0.766874
C 0.973092 -0.678245 0.247288
C -1.202436 -1.476981 -1.044730
C -0.448259 1.620175 -0.054308
C 1.024565 1.670563 1.270112
C 0.171033 -1.715800 -0.458532
N 0.530615 0.712085 0.404730
C 0.116477 2.639529 0.814592
O 0.251279 -1.732767 0.997832
H 0.745428 -2.540739 -0.897697
H -0.064960 3.627848 1.032202
H 1.926577 1.598875 1.872330
H -1.102444 -1.277180 -2.111100
H 2.022096 -0.752488 0.228449
H -1.736249 -2.458566 -0.963194
H -1.814717 -0.775869 -0.571082