18
H9 C6 N3
N 0.796626 0.681684 -1.113321
C -0.767996 0.790567 0.773737
C 1.350198 -0.759318 0.950156
C 2.380006 0.073499 1.544833
N 3.172035 0.664332 2.013726
C 0.391851 -0.004907 0.147143
C -0.126187 -0.583728 -1.233523
C -1.603680 -0.152358 -1.221468
N -1.970855 0.211727 0.157342
H -0.745052 0.687542 1.847167
H -2.193260 -1.014584 -1.599555
H 1.690496 0.316473 -1.412101
H 1.850040 -1.538992 0.298395
H 0.851699 -1.372497 1.739961
H -0.665137 1.864228 0.526997
H -1.865244 0.703505 -1.985877
H 0.225785 -1.408159 -1.591241
H -2.771336 0.840973 0.157664