18
H9 C6 N3
C -0.766958 2.325747 -0.917968
N 1.342318 -1.499668 0.461373
C 1.130868 1.135584 -1.021474
C 1.273212 -2.768436 0.959971
N -0.777854 1.230202 -0.160501
C 0.048152 -0.869242 0.498703
C 0.210854 0.431626 -0.245739
N 0.546793 2.357637 -1.489967
C -1.988395 1.292644 0.232886
H 0.376709 -3.195033 1.337195
H -0.813634 -1.512611 0.035812
H -0.260973 -0.736339 1.578822
H -2.768451 0.769005 -0.291109
H 2.140415 0.961677 -1.319769
H 2.160048 -3.340004 0.946308
H 1.758009 -1.512147 -0.553373
H -2.241205 1.752093 1.130942
H -1.369901 3.177275 -1.182110