21
H12 C8 O1
C -1.068921 1.201136 -1.277427
C 0.534498 0.057499 2.168053
C -1.256683 0.119101 0.779918
C -1.507809 -0.155822 -0.744707
C 0.152022 0.463542 0.595078
C 1.491777 0.628328 1.190231
O -0.027085 1.574181 -0.473937
C 0.823147 -1.228343 -1.417235
C -0.187418 -0.924720 -0.287387
H 0.646137 -0.962845 2.469698
H -2.304414 -0.759815 -1.081599
H 0.338516 -1.618115 -2.385520
H 0.181690 0.690318 2.936852
H -1.967606 0.370918 1.510489
H 1.571819 -2.051561 -1.028806
H 2.365038 -0.067774 0.921201
H 1.821912 1.618881 1.239262
H -1.889583 2.017599 -1.195310
H -0.471522 -1.745561 0.217572
H -0.742457 1.228892 -2.360908
H 1.496922 -0.455835 -1.775514