18
H9 C6 N3
C 1.100299 2.059201 -0.336752
N -1.074059 1.569537 0.653517
C 1.172864 -2.218925 -0.115566
N -0.969766 0.320849 0.254005
C 1.185036 0.829104 -0.780823
C 0.100205 -0.173239 -0.479112
C -2.203157 -0.494819 0.435891
C -0.031950 2.398005 0.444948
N 0.156179 -1.425401 -0.781417
H -2.007165 -1.225730 1.195617
H 2.107863 -1.701529 0.160559
H -0.219946 3.407798 0.867590
H -2.966559 0.213536 0.723040
H 1.879350 2.827336 -0.537465
H 1.459915 -3.102169 -0.739143
H -2.325380 -1.071528 -0.509485
H 0.680136 -2.637506 0.836720
H 1.956141 0.425496 -1.292112