18
H9 C6 N1 O2
O 1.160536 -0.306872 -1.109917
C -0.222270 -1.086288 0.985491
C 0.781218 -0.124037 0.207744
C 1.851328 0.659377 0.931165
O -1.689928 1.910506 0.164916
C -0.153487 0.398507 -0.885572
C -0.674824 1.703488 -0.600201
N -1.173734 -1.529817 -0.066851
C -1.016033 -0.809444 -1.292361
H -0.526239 -1.445311 -2.013148
H -0.167381 2.585789 -0.998110
H 0.243558 -2.013334 1.289195
H 2.615544 0.850064 0.184335
H 1.504269 1.551977 1.337177
H -1.967823 -0.468283 -1.789675
H 2.272416 -0.028353 1.698427
H -2.187130 -1.306300 0.193419
H -0.650046 -0.541662 1.763997