15
H6 C7 O2
C 0.528102 1.384316 0.041391
C -0.562709 0.859413 1.032825
O 1.106681 -2.045220 0.670069
C -0.907166 -0.610890 0.482584
C 0.439529 -0.930724 0.142752
C -0.876869 1.083664 -0.295610
O 0.054136 -0.102986 -1.974858
C 1.009921 0.127881 -0.753753
C -1.026564 -0.023539 -1.149301
H -1.602715 -1.292227 0.819790
H -2.023260 -0.239408 -1.606185
H 1.524974 -1.656001 1.471826
H -0.718000 1.227286 2.030199
H 0.991619 2.226903 0.097457
H 2.062340 -0.008463 -1.009174