21
H12 C7 O2
C -0.141334 -1.943180 -0.529949
O -0.093850 -0.673115 -2.671366
C -0.237084 -1.315669 0.835372
C -0.210325 2.599284 0.159230
C -0.456930 1.343245 0.992125
O -1.342629 -2.502619 -0.952854
C 1.133972 0.115970 -0.642282
C 0.449122 0.092328 0.725215
C 0.262602 -0.752842 -1.515215
H 0.697101 -2.628925 -0.600471
H -1.522209 1.062641 0.917180
H -0.469085 2.403306 -0.891582
H 1.254319 1.088413 -1.223200
H -0.882406 3.432710 0.557721
H 2.141439 -0.398652 -0.596163
H -0.359561 1.523364 2.089002
H -1.214807 -3.401797 -1.024713
H -1.272876 -1.169707 1.015942
H 0.806247 2.922976 0.325604
H 1.247553 0.147430 1.486343
H 0.210748 -1.945154 1.544076