17
H8 C5 N2 O2
C -0.237691 -0.302496 0.985556
C -0.666600 -1.544210 0.397129
N 0.304009 1.581834 -0.641962
C -1.019147 -0.593562 -0.801143
C 1.326195 1.192850 0.041868
O 2.598350 1.613677 -0.103775
C -0.933264 0.957891 -0.897659
N 1.110670 0.137086 0.953503
O -0.066152 -1.373508 -1.063447
H -0.756369 0.217838 1.735716
H -1.933457 -0.957720 -1.465136
H -1.775923 1.258747 -0.388858
H -1.725633 -1.849231 0.806285
H 3.118727 1.413841 0.589152
H -0.078129 -2.474614 0.650307
H 1.891735 -0.521486 1.142190
H -1.157365 1.243077 -1.939733