16
H7 C7 N1 O1
O -0.682165 0.918832 1.492108
C 2.254136 0.273943 0.682008
C 1.342653 1.363894 0.370524
C -0.863513 0.317809 -0.779225
C -1.921533 -0.647674 -0.288636
C 3.008685 -0.607190 0.900139
C -0.119389 0.883508 0.507521
C -1.821545 -1.982592 -0.829006
N -1.628371 -2.974786 -1.232998
H 1.458069 2.157000 1.023439
H 3.688420 -1.417789 1.071813
H -2.075045 -0.745771 0.841527
H -2.878060 -0.121488 -0.472136
H -0.095480 -0.263317 -1.316389
H 1.433977 1.777956 -0.630112
H -1.100851 1.067639 -1.340563