17
H10 C7
C -0.274483 0.251405 -0.007267
C -0.112739 -1.229506 0.404464
C -2.563335 0.846327 -1.272589
C 1.343368 -1.355369 -0.006883
C 1.023618 0.152178 -0.861082
C -1.477793 0.620432 -0.775162
C 0.041102 1.181747 1.226028
H 0.915456 -0.174991 -1.857249
H 1.559293 1.127142 -0.895309
H -3.494263 1.091057 -1.749097
H -0.050606 2.232303 0.842173
H 1.055865 1.017703 1.544507
H 1.669441 -2.354989 -0.389027
H 2.105704 -1.012160 0.707756
H -0.697813 -1.911068 -0.347703
H -0.673033 1.011400 2.009756
H -0.369779 -1.493604 1.426670