19
H10 C7 O2
O -0.111724 0.326504 -2.093962
C -1.208280 -1.706898 0.316002
C -0.011880 -0.928453 -0.035172
C 0.255626 0.632399 0.194744
C 0.239372 1.277885 1.487782
C -0.456050 1.321479 -1.021067
O 1.316619 -1.240301 0.522293
C 1.596368 -0.127229 -0.307196
C 0.564212 -0.653478 -1.362069
H 0.701519 2.325580 1.554149
H -1.735355 -2.204225 -0.531766
H 2.543331 0.273749 -0.414553
H 0.940385 -1.536114 -2.030742
H -2.033798 -1.132457 0.874773
H -0.954927 -2.483249 1.006766
H -0.898922 1.451642 1.847836
H 0.640417 0.629372 2.305980
H -1.422650 1.482332 -0.951866
H 0.035733 2.291405 -1.361949