18
H9 C7 N1 O1
O -0.323551 -0.935580 -3.245643
C -0.839776 -0.466097 0.238920
C 1.156541 0.167352 -0.100312
C 0.562950 -1.180561 0.242295
C -0.100864 1.392475 1.770674
C 0.986520 -0.896291 -1.132991
C -0.276098 -0.817909 -2.003427
N -1.332623 -0.627209 -1.120134
C -0.130817 0.902726 0.349214
H 0.286882 0.685074 2.472628
H 1.814453 -1.385763 -1.570317
H 0.588058 2.325700 1.852025
H -1.591870 -0.761179 0.977352
H 2.160205 0.564529 0.073314
H 0.900250 -1.997762 0.855969
H -0.490561 1.689850 -0.335735
H -1.137857 1.737515 2.097736
H -2.231854 -0.396871 -1.421572