19
H10 C7 O2
C -0.412059 -0.343921 0.976841
C -0.787926 0.697128 0.022362
C 1.584985 -1.822881 -0.192845
C -0.241074 -0.222152 -1.367438
C -1.851594 1.738689 0.028945
O -1.036200 -1.042813 1.767823
C 0.630622 -0.715940 -0.133331
C 0.593719 0.713523 -0.436899
O 0.691999 0.727240 1.913598
H 2.356905 -1.767994 0.614846
H 1.100334 -2.807702 -0.130442
H 2.166879 -1.796972 -1.120399
H 0.175796 -0.095365 -2.236645
H -1.725175 2.394756 0.939821
H -2.833323 1.317933 0.040553
H -1.022404 -0.831688 -1.621433
H 1.058939 0.058807 2.528625
H -1.798866 2.378899 -0.853821
H 1.348442 1.420433 -0.740175