21
H12 C8 O1
C -1.061814 -1.410260 -1.081131
C -0.015049 -0.347997 -1.107866
C 0.170401 -0.407918 0.396380
C -2.185268 0.268853 -0.102324
C -1.384279 0.134588 -1.378326
C 0.783382 0.947061 1.081062
O 1.076151 -0.341637 -1.984587
C -1.315828 -0.884150 0.453652
C 2.251602 0.804609 1.190204
H 2.784741 0.566308 0.262047
H -1.595656 0.537197 -2.396461
H 0.784688 -1.211536 0.765563
H 2.594685 0.011696 1.872056
H -1.692910 -1.525667 1.213753
H 0.301416 1.196724 1.960792
H 1.798252 -0.853500 -1.638639
H -1.372640 -2.284871 -1.644720
H 2.687560 1.782016 1.590091
H -3.155324 0.048952 -0.206486
H -2.017058 1.218328 0.448959
H 0.562948 1.751238 0.305993