15
H6 C5 N2 O2
C 0.368882 0.828826 0.175778
N 0.460934 -2.522542 1.121395
N -0.713940 -1.469493 -0.635280
C 0.113244 -1.526177 0.453748
C -1.168074 -0.351006 -1.311625
C -0.541605 0.913741 -0.811236
O 0.720239 -0.321496 0.821999
C 1.004731 1.965230 0.858248
O -1.930160 -0.459431 -2.246856
H -0.811163 1.807666 -1.313560
H 0.763580 2.957132 0.305023
H 2.138539 1.855763 0.755496
H -1.111692 -2.291964 -0.919453
H -0.056861 -3.428372 0.854388
H 0.763366 2.042124 1.891969