21
H12 C7 O2
O -1.121467 -0.440722 2.195508
C 0.854441 0.317591 -0.574497
C -0.950078 0.184979 0.988023
C 0.196245 -1.749570 -2.250017
C 0.906239 1.964195 1.241721
C -0.069692 -0.642162 -1.175842
C 0.538672 0.554227 0.805229
O -0.063769 0.755926 -1.584654
C -1.176744 -0.794896 -0.153364
H 1.194678 -0.140212 1.460341
H -1.533319 1.063465 0.807038
H 0.360248 2.740655 0.626877
H -0.860281 0.150978 2.945711
H -0.672782 -1.929175 -2.866551
H 1.930827 2.206740 1.298443
H 0.466947 -2.708074 -1.749485
H 1.935826 0.342963 -0.958861
H 0.479101 2.081748 2.304720
H -1.196031 -1.870583 0.176503
H 0.957879 -1.462825 -2.930478
H -2.176970 -0.625257 -0.606409