16
H7 C5 N3 O1
N -1.057098 -1.415841 -0.792368
C -1.414620 -0.437595 0.123616
C 0.424500 -1.275377 -1.085382
C 1.048564 0.887650 -0.068125
O -0.708090 -0.132656 1.337941
C -1.015190 0.099372 -1.114904
C 0.355257 0.641858 1.308593
N 0.886758 1.233880 2.358426
N 0.402891 0.247283 -1.154366
H 1.096794 -1.741592 -0.267015
H -2.480868 -0.384606 0.308266
H 1.177392 1.969489 -0.233082
H 0.279659 1.012648 3.147854
H 2.059022 0.485331 -0.022112
H -1.684338 0.550722 -1.778570
H 0.629385 -1.740570 -2.068769