21
H12 C6 N2 O1
C -0.692568 0.634672 0.299839
C -0.825634 1.979722 1.038580
C -1.446364 -0.475412 1.054488
N 1.980104 -1.146878 -1.152009
C 0.989994 -0.406491 -0.857710
N 0.030863 -0.054563 -1.795496
C -0.978559 0.738032 -1.205175
C 2.419214 -1.888351 -0.073719
O 0.699100 0.185418 0.360890
H -1.028508 -0.663785 2.058609
H 1.755489 -2.329108 0.624069
H -0.064745 2.678967 0.548531
H -0.915435 1.810150 -1.509812
H -0.574970 1.871666 2.132667
H 3.069595 -2.759765 -0.459571
H -1.496440 -1.406576 0.447266
H 0.302155 0.069707 -2.780421
H 3.112547 -1.356057 0.573676
H -2.004908 0.347280 -1.429886
H -2.493487 -0.166267 1.208252
H -1.837406 2.337632 0.916944