17
H8 C5 N2 O2
C 3.104812 1.971379 -0.181067
C -1.046300 -0.269168 0.326788
O -3.176072 -3.220149 -0.466710
C -2.016812 -1.063706 -0.503437
O -0.013498 0.144757 -0.551296
C 1.039936 0.772662 0.026047
N 1.247638 0.869773 1.176780
C -2.509059 -2.413442 0.059668
N 1.970243 1.281208 -0.679287
H -2.931458 -0.434608 -0.761748
H -1.531219 0.603693 0.803918
H 4.005584 1.381602 -0.282510
H -2.181180 -2.509109 1.148578
H -0.634082 -0.858998 1.157771
H -1.668169 -1.339726 -1.563179
H 3.038490 2.147722 0.950985
H 3.301144 2.936088 -0.661308