22
H13 C6 N1 O2
C 0.298032 -1.792695 0.367194
N -1.188288 0.339193 -0.461976
C -0.707747 1.041330 -1.373382
O 0.254774 1.956793 0.578880
C 0.124559 0.850559 0.118019
C 1.252373 -0.177771 2.068859
C 0.953169 -0.354555 0.678729
C -1.568094 2.127929 -1.716740
O 1.291994 -2.783752 0.457989
H -2.590796 2.068812 -1.128549
H 1.037646 -1.155988 -1.307960
H 0.938360 -3.590145 0.106110
H -0.310973 -2.011290 1.214548
H 2.016657 -0.268457 0.188608
H 0.283812 -0.160180 2.677624
H -1.135291 3.063323 -1.612661
H 0.024189 0.766617 -2.136209
H -0.466581 -1.817028 -0.464910
H -2.018603 2.084208 -2.782410
H 1.812043 -0.941182 2.430005
H 1.608569 0.862471 2.222311
H -1.909799 -0.108183 -0.124023