17
H8 C7 N2
C -0.832229 -0.806527 0.797792
C 2.030888 0.203422 0.251835
C -1.681829 0.785110 -0.648489
C -2.696382 0.131165 -0.018667
C 0.883241 0.696008 -0.644306
N -2.273751 -0.696937 0.850760
C 2.327318 -1.164531 -0.000735
C -0.469467 0.297042 -0.171287
N 2.514472 -2.260510 -0.344150
H -0.523912 -1.774664 0.497790
H 1.064268 0.334391 -1.659525
H -3.799770 0.310125 -0.143184
H 1.844783 0.346277 1.345275
H -0.423752 -0.664073 1.848012
H 0.899740 1.812993 -0.658105
H 2.935641 0.845833 0.043229
H -1.799247 1.604891 -1.346264