14
H6 C6 O2
O 1.571505 -2.100641 1.785447
C -0.994568 0.943015 -0.155769
C 0.452884 -0.547046 0.418677
C -0.059105 1.285641 -1.277256
C -0.306901 -0.163333 -0.845685
C 0.973736 -1.807651 0.714567
C -0.315814 0.464723 1.168170
O 1.027405 0.621959 1.054915
H -0.529143 1.577089 -2.202403
H -0.825895 -0.897259 -1.478043
H 0.940290 1.641968 -1.079699
H 0.839059 -2.605248 -0.037985
H -0.781861 0.262873 2.126342
H -1.991597 1.323917 -0.191269