17
H8 C7 N2
N 0.563968 -1.280777 -0.794451
C -2.932497 -1.061677 -0.189669
C -0.360007 -0.918681 0.355479
C -1.810175 -1.113538 0.048823
N 0.128376 1.249354 -0.851873
C -0.091443 0.464657 0.452305
C 0.557691 1.081841 1.355872
C 1.349733 0.966051 0.100124
C 1.120371 0.059708 -1.046901
H -0.648148 0.953111 -1.483470
H 2.340247 1.409883 0.125191
H -4.030180 -1.131294 -0.391207
H 0.227802 2.195266 1.492068
H -0.156411 -1.536604 1.239466
H 0.852717 0.572384 2.260714
H 1.726506 0.070568 -1.998897
H 1.161435 -1.980260 -0.673553