12
H3 C4 N5
C 0.345391 -0.818592 0.079836
N -0.709417 0.360126 -1.528053
N -0.415998 -0.878114 -2.069016
N -0.409250 1.514066 0.574364
N 0.885452 -0.957817 1.293297
C -0.356505 0.472837 -0.267192
C 0.131015 1.244530 1.753645
C 0.273345 -1.499408 -1.104523
N 0.786823 0.079041 2.158637
H 0.113786 2.031775 2.467240
H -1.291331 0.968373 -2.063966
H 0.646669 -2.516814 -1.294283