17
H8 C7 N2
C 0.660537 -1.597144 -0.695516
C 0.827451 2.435804 1.117770
N -1.063411 -0.340191 -0.065182
C 0.003002 0.441821 -0.323500
C -2.241323 -3.637789 0.058034
C -1.513568 -2.704688 -0.139874
N 1.051985 -0.273546 -0.660451
C -0.627919 -1.623055 -0.326056
C 0.012848 1.923931 -0.167709
H 0.488067 2.360116 -1.104115
H -2.895934 -4.477122 0.195974
H 1.935146 0.016933 -0.973465
H 1.338870 -2.425444 -1.012300
H -0.966359 2.299448 -0.106045
H 0.817971 3.541521 1.155311
H 1.830620 2.075886 1.055009
H 0.342005 1.983499 1.992086