20
H11 C6 N1 O2
C 0.322042 -1.899243 1.461373
C 0.470516 -0.842095 0.305097
O 2.292503 0.443232 1.028615
C -0.950346 -0.492096 -0.430152
C 0.908373 0.541470 0.748531
C -0.656719 0.874087 -1.026031
N -1.422887 1.467185 -1.895929
C 0.582609 1.380734 -0.476839
O -2.526013 0.664044 -2.250239
H 0.583580 2.457833 -0.275475
H -1.289716 -1.292417 -1.098566
H 1.431297 1.297676 -1.264278
H 1.292714 -1.941612 1.917682
H 0.002410 -2.836501 1.079617
H 0.382757 0.868842 1.555222
H -0.383570 -1.526457 2.222979
H -1.742339 -0.420334 0.300685
H -3.065652 1.249048 -2.784414
H 1.103274 -1.274382 -0.450375
H 2.665158 1.280998 1.332491