16
H7 C4 N3 O2
C 0.158684 0.724587 -0.676082
O -0.614452 1.073360 1.560794
C 0.264742 0.456852 0.994100
C -0.814851 -0.519230 1.525017
O -0.802770 -1.365006 2.428873
N 0.638861 -0.678525 -1.143488
C 1.566364 0.184759 1.312703
N -1.073914 0.581314 -1.150589
N 2.608534 0.105023 1.541166
H -1.744831 -0.709829 0.956264
H 0.042576 -1.351161 -0.700273
H 1.585317 -0.892417 -1.034249
H 0.761448 1.536441 -0.908938
H -1.249457 1.168059 -1.961110
H -1.781501 0.326918 -0.560814
H 0.455246 -0.641110 -2.183372