20
H11 C7 N1 O1
N 0.566446 -0.707550 1.415520
C 1.221721 1.040108 -1.630315
O 2.104357 1.486555 -0.530065
C 0.945079 1.488061 0.382913
C 1.124694 0.449318 1.378728
C -1.055091 -0.007799 -0.504809
C -0.032225 1.162347 -0.751846
C -1.370380 -2.056306 0.920477
C -0.380762 -1.143184 0.261659
H 0.297673 -1.648989 -0.425091
H -0.879043 -2.866573 1.442241
H -0.614916 2.014059 -1.149116
H -2.032585 -1.512801 1.720711
H -2.021828 -2.521655 0.137753
H 1.361624 1.770861 -2.419098
H 1.396752 0.019294 -1.978160
H -1.884778 0.351909 0.063503
H -1.460126 -0.408363 -1.402174
H 0.891809 2.470609 0.832507
H 1.821612 0.620107 2.234652