17
H8 C6 N2 O1
C 0.441210 -0.493790 1.306880
C -0.860010 1.539087 0.047698
C -0.360998 0.176119 0.162327
C 0.840603 -1.847499 -0.823838
N -0.406496 2.351772 -0.915839
N 1.511442 -0.962118 0.259741
C 0.679878 -0.390511 -0.851641
C -0.950520 -0.831467 1.093855
O -1.753752 1.946632 0.807570
H 0.856624 -0.029804 2.155981
H 0.049014 -2.561301 -0.490033
H 1.190876 0.076842 -1.614508
H -1.271586 -1.786419 0.770571
H -1.605337 -0.384039 1.808437
H 0.591668 2.147118 -1.380447
H -0.546361 3.400218 -0.908633
H 1.593753 -2.350849 -1.428080