16
H8 C5 N2 O1
C 0.656437 0.300527 1.064833
C 0.148168 -0.404274 -0.162428
N 0.012578 1.376203 1.553311
C 0.464275 -1.806737 -0.060168
C -1.416474 -0.357033 -0.276191
N 0.685438 -2.935984 -0.072069
C 0.797010 0.230029 -1.379144
O 1.795237 -0.015432 1.514451
H 0.468349 -0.249572 -2.281227
H -0.906393 1.491025 1.442156
H -1.755172 0.728632 -0.372739
H 1.860926 0.239016 -1.333172
H -1.935358 -0.809700 0.589347
H 0.372641 1.829474 2.346727
H -1.695331 -0.897974 -1.162276
H 0.447713 1.281782 -1.411418