17
H8 C6 O3
C -1.393745 -0.492226 0.722542
C -1.509767 -0.171008 2.153326
O 0.739829 0.698923 0.404735
C -0.597064 0.571743 -0.062429
C 2.377768 -0.561398 -1.024456
O -1.846897 -1.448138 0.136946
C 1.276457 0.511998 -0.923721
C -0.092814 0.185548 -1.481177
O 3.349085 -0.431869 -1.749274
H -0.446084 0.766400 -2.309368
H 1.746995 1.463400 -1.269510
H -1.063645 1.536787 -0.021733
H -1.935921 -1.065576 2.676820
H 2.214298 -1.438622 -0.480220
H -2.069901 0.736323 2.363723
H -0.517103 -0.000314 2.562382
H -0.231487 -0.861989 -1.698583