22
H13 C7 N1 O1
C 0.138741 1.361712 -1.277827
C 1.391535 2.149936 -1.357251
N 0.705360 0.575092 1.040630
C -1.590737 -1.340400 -0.753081
C -0.386189 0.975622 0.139191
C -0.441499 -0.484175 -0.360857
O 0.280362 -0.072453 -1.534670
C 0.556556 -0.878934 0.782733
C 0.021413 -1.647609 1.935215
H -1.227145 1.467137 0.558930
H -0.192339 -2.714350 1.668935
H -1.216498 -2.324867 -1.164720
H 0.719508 -1.680169 2.799547
H 1.870169 2.029284 -2.335621
H -1.012390 -1.263636 2.296533
H 0.492852 0.820159 2.122818
H -0.646028 1.706293 -1.860023
H 2.136965 1.838335 -0.552669
H 1.541741 -1.270844 0.358076
H -2.121794 -1.590751 0.119601
H -2.206660 -0.879883 -1.442348
H 1.186079 3.224468 -1.183156