16
H8 C4 N4
C 2.289287 -1.337708 0.292452
N 1.030139 -0.654988 0.290730
C -1.838889 0.981321 -1.139111
C -0.633681 0.621197 1.027511
N -1.469994 1.276328 1.711663
C 0.292457 -0.379296 -0.808118
N 0.540482 -0.012575 1.429806
N -0.770292 0.391112 -0.370177
H -1.833525 2.011636 -1.136369
H -1.209289 1.227231 2.681686
H -1.643599 0.674033 -2.209717
H -2.855417 0.512343 -0.896443
H 3.106987 -0.661343 0.515094
H 2.371240 -1.874044 -0.669899
H 0.437789 -0.649025 -1.793987
H 2.186291 -2.126236 1.074890