19
H11 C5 N1 O2
C 0.968320 1.450393 0.035330
N 0.268997 -0.990123 0.370068
C -0.729352 -2.045629 0.120004
C 0.574873 0.873709 -1.262495
O 2.231835 1.146812 0.465565
C -0.147313 0.330920 0.059854
O 1.571232 0.200042 -1.764830
C -1.425139 0.768922 0.638284
H 2.383022 0.707285 -0.583225
H -0.273298 -3.066217 0.231892
H -0.128678 1.422678 -2.023327
H -1.569565 1.841281 0.436617
H 0.720237 2.500280 0.258572
H 0.644102 -1.054471 1.361838
H -2.281749 0.280709 0.184535
H -1.021475 -1.919719 -0.936081
H -1.563382 -1.951797 0.830914
H 1.166358 -1.078065 -0.131089
H -1.389023 0.583039 1.707584