23
H14 C6 O3
C -2.139759 -2.285494 -0.141886
O -1.748825 1.020167 -0.685393
C 1.932273 -0.363485 1.116761
C 0.405693 -0.086403 -0.739368
C -1.056723 -0.292339 -0.966261
C 1.463520 2.061279 0.375558
O -1.444777 -1.139892 0.130157
O 0.678224 2.970742 -0.349234
C 0.906791 0.630655 0.541874
H -2.968554 -1.993683 -0.752310
H 2.353835 0.169484 2.085749
H -1.573079 -3.068110 -0.657484
H 1.682129 2.505983 1.370842
H 2.763822 -0.543937 0.461972
H 0.933870 0.204963 -1.580658
H -2.150616 0.847482 0.130538
H -2.466998 -2.667149 0.789753
H -0.287768 2.494581 -0.318029
H 0.253236 -1.535973 -1.182336
H 1.461858 -1.296971 1.311608
H 2.412235 1.991198 -0.152708
H 0.031511 0.715121 1.159690
H -1.441903 -0.338269 -1.948806