19
H10 C6 N2 O1
C -0.395601 0.715534 -0.020031
C 1.456472 -2.609334 -0.247188
C -2.476454 1.290812 -0.986232
C -0.361676 -0.626744 -0.574490
N 1.050444 1.948404 1.644636
N 1.344705 -0.313162 0.757122
C 0.640952 0.877938 0.818958
O -1.419063 1.699236 -0.149386
C 0.810558 -1.215632 -0.049065
H 1.561399 2.623510 1.113671
H 0.805365 -3.146755 -0.931774
H -1.050276 -1.150787 -1.249998
H 0.285560 2.364305 2.089929
H 2.225042 -0.464754 1.344229
H 1.475601 -3.075939 0.748668
H -3.044901 0.407824 -0.600731
H -3.174602 2.137369 -1.073500
H -2.195698 0.969711 -2.008459
H 2.462139 -2.431583 -0.626376