14
H6 C6 O2
C -0.136797 -0.307390 0.051026
C 1.124980 -0.216803 0.880146
O 0.964966 1.203928 1.126908
C -0.117889 0.878800 -0.984025
C -1.831235 -2.326513 -0.083906
O 1.075785 1.197916 -1.698865
C -0.289527 1.109698 0.382247
C -1.051672 -1.376174 -0.053033
H 2.089713 -0.447802 0.369085
H 1.063005 -0.833429 1.773928
H -2.455940 -3.129379 -0.093368
H -1.101960 1.659674 0.905916
H 1.604025 1.695867 -0.993279
H -0.937462 0.891596 -1.582790