16
H7 C7 N1 O1
C -0.857708 2.531041 1.844037
C -1.147389 -0.544105 -0.220593
C -0.224581 -0.987815 0.789753
C 0.837013 -1.237926 -0.385947
C -0.534400 1.586756 1.148642
N -0.373104 -1.261736 -1.338614
O 1.310140 0.867879 -1.703973
C 1.186459 0.274713 -0.409123
C -0.084057 0.464650 0.390677
H -0.726036 -2.200028 -1.350099
H 1.541018 -1.989353 -0.522245
H 2.046413 0.514931 0.177051
H -0.243646 -1.412069 1.764998
H -2.163115 -0.299587 -0.330017
H 0.599472 0.371392 -2.225727
H -1.166471 3.321247 2.371166