17
H8 C5 N4
C 1.598509 0.735762 0.249903
N 0.715793 -2.577928 -0.244272
C 0.489650 -0.064115 0.133932
N -0.893355 0.205845 0.273485
C 1.125284 -1.355558 -0.088954
C -1.332322 1.461491 -0.177847
N 2.528155 -1.410500 -0.057063
C -1.833070 -0.891459 0.077373
N 2.783666 -0.038211 0.092568
H -1.955337 -1.154012 -1.021637
H 1.646460 1.790203 0.370875
H -1.484098 -1.818901 0.573285
H 3.679116 0.259139 0.173425
H -2.214289 1.690253 0.312482
H -1.417547 1.549972 -1.251778
H -2.784873 -0.623537 0.394463
H -0.651745 2.241541 0.189755