17
H8 C7 O2
O 0.395568 2.505359 1.122803
C 0.864780 0.449003 -0.175103
C -0.401611 0.517293 -0.888660
C 0.352781 1.084239 1.119896
C -0.822513 -1.077022 0.699791
O 1.680868 -1.765499 -2.038815
C -1.022622 0.522553 0.630317
C 0.692366 -1.856780 -1.315720
C 0.171549 -0.824706 -0.419973
H -1.914672 1.020274 0.926019
H 0.001522 -2.741898 -1.446259
H 1.893672 0.618461 -0.672808
H 0.768122 0.802395 2.063603
H 0.167509 2.855917 0.244251
H -1.697523 -1.534358 0.346935
H -0.708758 0.852449 -1.885780
H -0.421019 -1.427688 1.689506