19
H10 C6 O3
C 0.841476 -0.506249 -0.765813
C 0.893013 0.236778 0.546528
C -0.507738 0.704024 0.879007
O -0.980576 -1.691615 -1.923559
C 2.116820 0.805926 1.182084
O -1.818239 0.635283 -1.068071
C -1.353536 -0.171260 0.041610
C -0.453993 -1.192735 -0.685701
O 1.647022 -0.485052 1.639792
H 0.749682 0.345116 -1.563913
H 3.055897 0.748534 0.626213
H 1.707878 -1.117637 -0.946890
H -0.732825 0.630284 1.960874
H -2.573828 1.255068 -0.735115
H -0.623998 1.727460 0.634297
H -2.203594 -0.648675 0.537513
H 2.101377 1.643476 1.898349
H -1.470226 -0.886390 -2.254317
H -0.394629 -2.032313 -0.002901