12
H4 C4 N2 O2
O -2.126426 1.121123 -0.103409
C 0.467499 -1.022323 -1.288392
C -0.280849 0.568635 0.656922
N -1.606428 0.311174 -1.048887
C -0.461878 -0.050772 -0.542606
C 0.787182 0.506826 1.682992
O 1.746742 -0.161413 1.570956
N -1.372875 1.340042 0.929758
H 0.062196 -1.263574 -2.292982
H 1.466227 -0.554058 -1.423153
H 0.684783 1.156275 2.605608
H 0.633831 -1.951932 -0.746797