25
H16 C8 O1
C -0.213856 0.222221 -1.920477
C 0.636745 -0.163600 0.357262
C -0.963022 -0.333726 0.432037
C 0.933841 -0.494809 -1.137330
O 3.182890 -0.887341 -0.816557
C -1.457775 0.024519 -0.967654
C -1.228912 0.252080 2.887173
C 2.278098 -0.084832 -1.544567
C -1.634045 0.586542 1.481878
H -1.217269 -1.344891 0.673475
H 0.769288 -1.585495 -1.220550
H -2.113096 0.898190 -1.015798
H -1.370774 1.630763 1.245975
H -0.312081 -0.153451 -2.907030
H -1.515024 -0.760589 3.176080
H -1.749514 0.901354 3.583144
H -0.142581 0.427685 3.065236
H -2.702316 0.463173 1.372248
H 0.836617 0.797339 0.583062
H -2.049686 -0.877382 -1.375373
H 2.420015 -0.244665 -2.616417
H 2.439979 0.956509 -1.397161
H 0.000301 1.256455 -1.952618
H 4.078493 -0.627760 -1.011691
H 1.093661 -0.858303 1.025649