15
H6 C6 O3
O 0.470384 -0.662467 2.426285
C -0.648405 0.629616 -0.550989
C 1.188824 -0.915309 0.090354
C -1.150248 -0.453875 0.490888
C 0.022900 1.932848 -0.206405
O -1.038489 -1.394581 -0.578379
C 0.246027 -0.695288 1.304523
O 1.186110 2.175264 -0.385560
C 0.135865 -0.589561 -1.003407
H 1.491937 -1.982013 0.027218
H -1.546344 0.768993 -1.169916
H 0.349799 -0.837392 -2.029176
H -2.051292 -0.388545 1.092664
H -0.615835 2.669261 0.294147
H 1.958771 -0.256950 0.197726