19
H10 C7 O2
C 1.729841 -0.275041 -0.082649
C 2.683160 0.534649 -0.804777
O 2.041506 -1.123999 0.824628
C -2.487242 -0.118720 0.259249
C 0.202412 -0.031645 -0.257693
O -1.999773 -0.887300 -0.783676
C -0.584374 -1.269067 -0.649345
C -0.308079 0.603606 0.993414
C -1.780477 0.716921 1.145501
H -0.391725 -2.001594 0.169516
H 0.106531 0.731722 -1.021642
H -2.435579 -0.264237 1.781691
H 2.587947 1.665225 -0.704432
H -3.544816 0.046023 0.075156
H 3.718174 0.343194 -0.572773
H -2.098617 1.675186 1.341825
H 2.518661 0.349992 -1.913268
H -0.344472 -1.694766 -1.556443
H 0.386918 0.999826 1.755725