23
H14 C7 O2
C 0.996467 1.407891 -0.098672
C -0.467259 -0.717799 0.154173
C 1.681335 1.424340 -1.426081
C -1.847729 -1.333758 0.455287
C -0.423869 0.825390 0.026549
O 1.302277 0.495391 -2.274013
C -1.805035 -2.872544 0.563766
C 1.413345 2.295151 0.878538
O 1.929059 0.947262 0.844164
H 2.212054 3.058985 0.662036
H 0.225137 -0.964044 0.957761
H -1.104942 -3.225636 1.443444
H -2.773331 -3.303682 0.819568
H -2.236582 -0.908319 1.405536
H 0.815068 2.534653 1.775586
H -2.592559 -1.053762 -0.315003
H 2.851970 1.529151 -1.201853
H -1.037294 1.110763 -0.815325
H -0.073681 -1.122302 -0.769269
H -1.426707 -3.380734 -0.325460
H 1.762304 -0.238151 -1.774731
H -0.911609 1.208986 0.952668
H 1.511586 2.282786 -1.938671