18
H9 C6 N1 O2
C -1.023643 -1.999919 -0.379527
C 0.874895 1.250816 -1.721943
C -0.132272 0.040634 0.168576
C 0.124332 -1.119436 1.267608
N -0.427156 -2.307240 0.709209
C 1.168777 0.423851 -0.567913
O 1.509107 2.291645 -1.944723
O -1.018164 -0.655704 -0.751787
C -0.902914 1.161719 0.819740
H -0.224602 1.694727 1.539132
H 1.897449 0.822915 0.117941
H 1.243693 -1.242657 1.501481
H 1.585831 -0.599429 -0.887432
H -1.820675 0.879944 1.230690
H 0.094052 0.957785 -2.360013
H -1.534315 -2.649467 -0.975055
H -0.304126 -0.870374 2.248138
H -1.110302 1.920176 -0.014112