21
H12 C7 O2
O -0.319629 0.392994 -0.142586
C 1.287547 -0.413141 -2.357499
C -1.137579 0.877605 0.851942
C -2.176558 -0.003270 1.358618
C 1.838004 0.004161 0.937450
C 1.651222 -0.886645 -0.950913
C -2.555728 1.163708 0.457867
O 2.601344 -0.169182 -0.214011
C 0.630767 -0.610119 0.176707
H -3.083692 1.968746 0.907301
H -2.479001 0.028440 2.386644
H 1.853640 -1.927047 -0.890292
H -2.844023 0.961261 -0.560175
H 0.489775 -0.994315 -2.811160
H 0.092376 -1.424081 0.672747
H 1.748470 1.093909 1.229597
H 2.139046 -0.547541 1.831522
H -0.682173 1.498003 1.527955
H 1.034320 0.614187 -2.344594
H -2.292464 -1.035956 0.917388
H 2.204314 -0.591703 -2.984543