22
H13 C8 N1
C 1.810084 -0.205829 -0.798401
C 0.565402 -1.102687 -1.052350
C -1.632786 0.181970 1.759064
C -0.819531 2.224117 -0.466250
C 1.492847 0.980442 -0.377471
C -0.405798 0.074707 0.938585
C 0.030586 1.056603 -0.112983
C 0.611840 -2.472380 -0.545946
N -0.542867 -0.258873 -0.466246
H 0.840403 -2.570489 0.550584
H 0.370320 -1.119770 -2.133428
H 2.850558 -0.516755 -1.090253
H 1.404299 -3.130441 -1.019768
H 2.151395 1.855012 -0.217961
H -2.026377 -0.909693 1.983449
H -1.414316 0.611869 2.717053
H -0.317250 -2.999862 -0.720476
H -0.645814 2.674966 -1.507988
H -1.870810 2.106096 -0.334593
H -2.459283 0.702267 1.269593
H 0.480910 -0.329192 1.463841
H -0.473785 3.147889 0.161937