21
H12 C8 O1
O 1.612687 1.807880 -1.084904
C -1.626803 -0.253504 1.064784
C -1.183579 0.613218 -1.130818
C 0.584266 0.028525 0.109069
C 0.586381 -1.306287 0.978062
C -0.723706 0.808199 0.394059
C -0.880331 -1.414133 0.394150
C 1.921225 0.711083 -0.254872
C -0.316349 -0.661239 -0.918829
H -2.211033 0.559230 -1.355904
H -1.516411 -0.271298 2.106609
H -0.694983 1.867673 0.809959
H -2.603108 -0.185700 0.757672
H 2.578953 0.038786 -0.706871
H 1.179831 -2.058662 0.539610
H -1.410586 -2.359997 0.363590
H 2.354850 2.308151 -1.250404
H -0.626491 1.294048 -1.782538
H 0.683797 -1.180799 2.000871
H 2.324693 0.985294 0.703291
H -0.033291 -1.330505 -1.736612