21
H12 C7 O2
C -0.780496 -0.663623 1.468465
C -1.423183 -0.432157 -1.004239
O -1.150809 0.652517 1.765322
C 0.835775 0.105120 -0.335960
C -0.425716 0.760316 -1.125335
C 1.714363 1.196347 0.384608
O 1.722751 -0.639112 -1.264336
C 0.390956 -0.943456 0.570544
C -1.008591 -1.330143 0.140244
H 1.077311 -1.655456 0.874024
H -2.110947 0.625706 1.800709
H -1.333682 -2.363568 0.150801
H -0.749612 1.594312 -0.636378
H -1.292569 -1.007683 -1.913494
H 1.107851 1.705881 1.151611
H 2.058056 1.999852 -0.391950
H -0.099811 0.945260 -2.054926
H 2.597427 0.796095 0.822686
H -2.444213 -0.084725 -0.982764
H 2.146909 0.039065 -1.854225
H -0.831749 -1.300539 2.434564