18
H9 C5 N1 O3
C -0.370219 -0.920502 -0.669219
C -0.297165 0.571778 -0.766833
O -1.464990 1.287825 -0.438715
C 0.896430 0.467712 0.197227
C 1.023265 -1.049251 -0.107173
O 1.989831 1.247189 -0.258076
O -2.454363 -1.233499 -1.363755
C 0.509829 0.821702 1.678756
N -1.287732 -1.853613 -0.788403
H 0.194753 1.838973 1.772864
H 1.760199 -1.247831 -0.829865
H 1.149363 -1.725891 0.755726
H -2.243383 0.762900 -0.747375
H -0.384015 0.255149 1.938611
H 1.307842 0.525785 2.344968
H -3.055180 -1.899058 -1.466140
H 2.616552 1.376092 0.504166
H 0.109007 0.774513 -1.756788