23
H14 C8 O1
C 0.116039 -1.015696 0.828254
C -0.740596 -1.444063 -0.272825
C 0.012845 0.300511 1.462946
C 0.508926 0.346845 -2.561177
C 0.748052 -1.169012 -0.529939
C -1.323710 0.452379 2.347163
C 1.215477 0.021879 -1.224228
C 0.144129 1.388720 0.370019
O 1.297937 1.236964 -0.448042
H 0.345204 -1.863517 1.583777
H -0.514291 0.596550 -2.396544
H 1.312811 -2.103674 -0.760898
H -2.164632 0.420821 1.735398
H 0.598175 -0.476628 -3.227519
H -1.405568 -0.233410 3.116367
H 1.061826 1.214856 -3.051028
H -0.759165 1.442124 -0.228140
H 0.300156 2.364110 0.874847
H 0.885276 0.478451 2.091932
H -1.087375 -2.526198 -0.375677
H -1.331131 1.472529 2.824173
H 2.259432 -0.136678 -1.455603
H -1.479794 -0.767880 -0.703264