13
H4 C4 N2 O3
N -0.417052 -0.914199 -0.457924
C 1.170535 0.434085 2.365671
C -1.105214 -0.392639 -1.575288
C 0.873209 1.157967 0.248770
C 0.252994 -0.005585 0.403069
O 1.497771 1.501809 1.479741
N -1.501570 -1.396263 -2.320212
O 1.521585 0.366145 3.513003
O 0.560524 -0.503219 1.642800
H -0.509285 -1.850543 -0.149152
H -2.009729 -0.912601 -3.091602
H -1.317645 0.601301 -1.574937
H 0.983889 1.913743 -0.483962