20
H11 C6 N1 O2
C 1.648162 1.200505 -1.145784
C 1.658901 0.441760 0.197253
C 0.601548 -0.610320 0.288730
C 0.097301 -1.039025 1.547339
O 1.536626 1.391099 1.260071
C -2.179098 0.285610 -0.879431
C -1.676815 -0.576483 0.053031
N -2.138169 -1.847255 0.129983
O -0.742156 0.016285 0.713639
H -2.228095 0.006428 -2.009170
H 1.906127 0.548663 -1.980108
H 0.640486 1.600121 1.243507
H -0.023069 -2.134613 1.684594
H 2.644230 -0.033696 0.325718
H 0.704728 1.605112 -1.303953
H -2.714650 1.013123 -0.614832
H 0.664040 -1.376694 -0.488858
H 0.288720 -0.530966 2.496192
H -3.120414 -1.950752 -0.386843
H 2.431617 1.991067 -1.131068