17
H8 C5 N2 O2
O 0.472198 0.551572 -0.763840
N 1.322202 -0.965511 0.644067
C -0.788819 2.118533 -2.277108
C -1.609455 0.715907 -0.181572
C 0.220911 -0.223135 0.209264
O 0.459146 -2.677423 1.936367
C 1.398821 -1.704484 1.855189
N -0.938461 -0.202336 0.767098
C -0.764885 1.143624 -1.121489
H -0.112203 2.923623 -2.080199
H 1.381880 -0.979803 2.671272
H -2.658357 0.931153 -0.042027
H -1.809245 2.497472 -2.354477
H 2.029117 -1.200883 -0.033113
H 2.352953 -2.211914 1.949539
H -0.554426 1.535654 -3.166314
H -0.401358 -2.252042 1.987313