19
H10 C6 O3
C 0.192644 1.250516 0.263032
C 0.686204 -1.895107 -0.991567
C 1.499470 1.922215 0.670133
C 0.246631 -0.196043 0.433737
O -0.731672 -1.647364 -1.245946
C -1.077592 -1.016457 0.076465
O 1.240910 -0.808519 -0.421631
C -2.285885 -0.198121 -0.231593
O -3.099662 0.231742 0.652404
H -2.475432 0.068804 -1.289328
H -0.009702 1.451095 -0.831107
H 1.473651 3.007853 0.419117
H 0.795190 -2.830211 -0.429940
H 2.339352 1.463339 0.112359
H -0.710483 1.662599 0.771153
H 1.622095 1.769395 1.747223
H -1.301422 -1.797433 0.806364
H 1.111510 -1.976728 -2.022715
H 0.484200 -0.461561 1.511829