19
H10 C7 O2
O 0.104736 1.692270 0.764844
C -1.302907 -0.992482 0.284208
C -0.526714 -2.142882 -0.304706
C 0.401846 3.058848 0.881719
C 0.423184 0.985601 -0.240777
C 0.750514 -1.573200 0.469042
C -0.026170 -0.475261 -0.236223
C -0.184862 -1.304235 -1.524073
O 1.075894 1.524007 -1.094683
H 1.798839 -1.836021 -0.011396
H 0.765721 -1.579609 1.547536
H -0.032468 3.619974 0.098840
H -0.003739 3.430721 1.860677
H -0.736925 -3.243535 -0.297423
H 1.467650 3.189852 0.923964
H -2.297995 -0.755087 -0.264385
H 0.741334 -1.505595 -2.022425
H -1.458364 -0.989026 1.360738
H -0.959580 -1.104312 -2.195461