15
H6 C7 O2
C -1.005106 1.317996 0.498907
C 0.037744 -0.322878 1.770901
C 0.098069 -0.764792 0.328591
C -0.653274 0.794780 -3.014000
O 2.168883 -0.582712 -0.835184
C 1.523464 -1.044318 -0.010292
C -0.530899 0.491150 -0.442508
C -0.541842 0.655054 -1.783444
O -0.765412 0.856630 1.777580
H -0.758521 0.905821 -4.038974
H 1.976766 -1.894020 0.576371
H 0.909394 -0.049509 2.248839
H -0.496323 -1.576809 0.121628
H -0.490474 -1.001877 2.405547
H -1.472465 2.215469 0.396020