18
H9 C8 N1
C 1.725272 -1.171301 -2.427860
N -2.038984 1.543407 2.482396
C 0.206952 0.587752 -1.275197
C -1.390888 0.935284 1.759261
C 0.978009 -0.343639 -1.892090
C -1.138803 0.043926 -0.602540
C 0.033134 -1.071486 1.516892
C -0.525003 0.209005 0.883898
C 0.607103 1.074591 0.157761
H 2.415019 -1.824194 -2.815984
H -1.343534 -0.981097 -0.852698
H 1.602125 0.970545 0.457138
H 0.680666 -1.610705 0.810574
H -0.813742 -1.748332 1.747344
H -1.969747 0.641816 -0.725833
H -0.033266 1.434667 -1.926575
H 0.575306 -0.873678 2.401227
H 0.430368 2.183446 0.302303