18
H10 C8
C 0.122562 -1.107064 -0.571105
C 0.889824 0.478446 1.445825
C -1.379123 -1.415486 -0.601161
C -0.070096 -0.535411 0.836693
C 0.815370 1.380080 -0.845877
C -0.189335 0.329031 -1.107596
C 1.318436 1.489910 0.416568
C -1.283459 -0.076294 -0.051576
H 1.081979 2.082494 -1.618151
H 1.740945 0.024664 1.879030
H -0.318858 -1.271920 1.587148
H -0.550646 0.370804 -2.082358
H -1.790028 -1.543099 -1.666633
H 2.114029 2.186351 0.641640
H 0.976260 -1.748177 -0.871220
H -1.689965 -2.270049 0.037293
H 0.370790 1.022999 2.262415
H -2.158705 0.602734 0.309088