23
H14 C8 O1
C 0.942779 0.175205 0.477434
C -0.663714 -0.825318 -0.969987
C -1.340971 -0.666625 0.368735
C 0.152421 1.649973 -1.573958
C -0.329155 -0.205860 2.717879
C 0.507950 0.223771 -0.983529
O 0.347901 -1.867568 -1.362311
C -0.416582 0.234115 1.282120
C 1.191469 -0.753350 -1.871423
H 1.664108 0.928386 0.777496
H -0.146930 1.620142 -2.555091
H -0.071265 -1.259791 2.871181
H -0.791073 1.239992 1.222475
H 0.997316 2.314878 -1.359936
H -0.630894 2.154716 -0.972785
H 2.259852 -0.996923 -1.626078
H -2.342185 -0.223115 0.341022
H -1.359233 -0.743241 -1.818256
H 0.322251 0.342990 3.336243
H 1.393171 -0.817609 0.667871
H 1.118446 -0.677486 -3.005331
H -1.534703 -1.706244 0.797389
H -1.270953 -0.141052 3.238879