20
H11 C7 N1 O1
C -1.218120 -1.107154 0.833374
C 1.435114 -1.425021 0.093847
C 0.498560 0.767435 1.104800
C 0.216682 -0.664162 0.749693
C -0.292381 0.771713 -0.329499
N 1.973095 -0.187623 -0.321562
O -0.879749 2.120844 -0.700809
C -1.606152 -0.014068 -0.172895
C 0.912240 0.444402 -1.233373
H 0.737967 -0.132306 -2.044125
H -2.032522 -0.310893 -1.114809
H 1.489489 1.428371 -1.599195
H -0.252889 2.581709 -1.218288
H -1.702457 -1.007296 1.827400
H 1.473725 0.865923 1.679030
H 1.086565 -2.084433 -0.710911
H -0.209632 1.351490 1.705348
H -1.393234 -2.168650 0.458178
H -2.388316 0.707652 0.291682
H 2.151987 -1.937954 0.702105