18
H9 C6 N1 O2
O 0.211063 0.083673 -2.455367
C -0.047444 0.890478 -1.590697
C -0.132928 0.461482 -0.138402
C -0.018577 -1.332928 1.538824
C -0.294958 2.295081 -1.945225
O 0.958205 -0.758625 2.366211
C 0.127147 -0.995537 0.105194
C 0.261954 -2.760885 1.768501
N 0.403852 -3.895991 2.008438
H 0.638317 1.086400 0.386576
H 0.444093 2.940826 -1.433977
H -1.145192 0.737690 0.241470
H -0.259027 2.491579 -2.970542
H 1.102270 -1.335414 -0.247419
H -0.546961 -1.583302 -0.535084
H -1.231033 2.649843 -1.594130
H -1.075635 -1.129101 1.859470
H 0.604856 0.154699 2.636141