21
H12 C8 O1
C 1.461861 0.198091 0.417282
C 0.225739 -0.352692 -0.261681
C 0.395275 0.679731 -1.347530
O -2.120800 0.651490 -0.356711
C -0.057964 2.146069 0.294140
C -0.749288 -2.236514 1.069500
C 1.286147 1.552209 -0.350449
C -0.729127 0.892792 -0.377494
C -0.219332 -1.740528 -0.289559
H -1.589650 -1.648122 1.359960
H 0.536928 -2.347518 -0.703913
H 0.058658 -2.182586 1.817722
H -1.035744 -3.282920 1.008083
H 2.399560 -0.286051 0.096555
H -0.017550 2.273136 1.296295
H -0.336966 3.008314 -0.250739
H 0.432794 0.593287 -2.419200
H -2.446935 1.366991 -1.020453
H -1.094557 -1.784922 -1.006000
H 2.078251 2.128985 -0.538896
H 1.522697 0.370754 1.563071