17
H8 C6 O3
C 0.068163 -1.308152 2.420805
C 0.730967 0.900643 -2.185068
C 0.016822 0.443933 -0.983336
C -1.268049 0.957032 -1.510057
O 0.527329 -1.688318 -0.255749
C 0.316526 -0.529653 0.034471
O -0.603950 1.337549 -2.710675
C 0.393707 -0.111398 1.540794
O -0.052978 -0.881091 3.690652
H 0.902741 -2.064208 2.262972
H 1.363123 1.696773 -2.046221
H -1.773920 1.693716 -1.022987
H 1.394521 0.365550 1.582949
H -0.843501 -1.767778 2.219615
H -0.345672 0.723310 1.614342
H -1.941641 0.141253 -1.827631
H 1.115794 0.090836 -2.824861