23
H14 C8 O1
C 0.287412 0.382874 0.107025
O 0.318980 -0.288825 2.413763
C -2.210892 -0.202025 -0.512943
C 1.287801 1.441824 0.414728
C 1.580868 1.733554 -0.991092
C -1.083805 0.796249 -0.005039
C -0.079713 -2.108045 0.974966
C 0.612280 -0.797470 1.219706
C 1.067427 0.207794 -1.263796
H 0.292894 -2.854924 1.717237
H -1.088525 1.734222 -0.760040
H 1.686575 -0.878455 1.086175
H 0.411682 -0.016061 -2.107901
H 1.797371 -0.522299 -1.203947
H 0.949259 2.420556 -1.518609
H -1.199161 -2.153657 1.201393
H 2.661990 1.893353 -1.225741
H -3.134251 0.293995 -0.886060
H 0.082806 -2.521524 -0.016012
H -1.817412 -0.880606 -1.278373
H -2.527820 -0.902815 0.351669
H 1.535668 1.926121 1.309334
H -1.431417 1.296159 0.973564