21
H12 C8 O1
C 1.294006 0.625326 -1.285163
C -1.146111 1.636179 1.979051
C 0.112859 -0.257477 -0.909669
C -0.893252 -0.533862 -1.952620
C 1.368039 -1.136669 2.224366
C 0.661905 -0.663878 1.457559
C 0.103412 -1.605628 -1.582595
C -0.331934 -0.066916 0.573083
O -0.605140 1.333776 0.807709
H 1.010728 1.672252 -1.159402
H -1.214854 -0.618366 0.645069
H -1.289600 2.727975 2.027499
H 1.550600 0.476941 -2.356378
H 0.770934 -1.917204 -2.228434
H 2.092994 -1.587979 2.924181
H -2.003221 -0.604644 -1.633235
H 2.171201 0.433609 -0.687849
H -2.067657 1.139508 2.204215
H -0.800307 -0.054999 -2.931524
H -0.378812 1.419108 2.795009
H -0.405766 -2.417091 -0.910882