12
H3 C4 N5
C -1.030243 -1.315830 -2.048742
N 1.398373 1.683732 1.727855
N 1.190336 1.036166 -0.523993
N -1.616886 -1.978861 -2.862484
C 0.841673 0.896267 0.841643
C -0.423017 -0.570446 -1.090424
N -0.769147 -0.741774 0.212071
C -0.199385 0.010983 1.194522
N 0.606313 0.332910 -1.470699
H -0.530171 -0.135945 2.226510
H -1.531133 -1.460541 0.453816
H 2.063310 2.243366 1.339917