18
H9 C6 N1 O2
C 1.528142 0.512753 0.357754
C -0.858718 0.852420 -0.541809
C -1.059580 -0.603579 -0.186010
O 1.647810 -1.125664 2.076750
C 0.918089 -0.496258 1.267823
N 0.484452 1.440848 -0.132169
C 0.115178 1.336762 -1.583771
C -0.605247 -0.828141 1.303277
O -0.450851 -1.410733 -1.141719
H 0.553765 0.513367 -2.196802
H -1.139875 -0.082529 1.956244
H 2.210994 1.094608 0.916102
H -0.046185 2.282019 -2.075849
H 1.991348 -0.005411 -0.407914
H -0.558983 -2.378273 -0.842973
H -1.683021 1.486136 -0.228770
H -2.220798 -0.799265 -0.220447
H -0.826544 -1.789085 1.680267