12
H6 C6
C 0.436945 2.017141 -2.225133
C -0.007520 0.776336 0.081504
C 0.239308 1.463213 -1.175359
C -0.256052 -1.473520 1.164470
C 0.021411 -0.777750 -0.076759
C -0.468412 -1.988669 2.226625
H -0.714632 -1.059935 -0.847228
H 0.627534 2.513816 -3.146091
H -0.650748 -2.490027 3.163880
H 0.752307 1.034083 0.824950
H 0.997270 -1.070502 -0.484796
H -0.977405 1.055817 0.493919