12
H6 C6
C -0.755323 2.469903 0.922744
C -0.021440 -1.430615 0.087663
C -0.997410 3.630209 1.142412
C 0.900618 -1.622779 -1.123452
C -0.287996 -0.012991 0.407616
C -0.496180 1.136249 0.654535
H -1.172704 4.652221 1.318816
H -0.992140 -1.933356 -0.090768
H 0.458998 -1.152706 -2.018925
H 1.071305 -2.679705 -1.312032
H 0.424501 -1.910428 0.959904
H 1.867778 -1.145992 -0.948514