13
H7 C4 N1 O1
C 0.207495 -0.634921 0.010776
C 1.480389 -0.336391 -0.686809
C -0.927711 0.323722 -0.032970
C -1.122635 1.295703 1.023151
H 2.406469 -0.681884 -0.240585
H 1.573508 0.576544 -1.257553
H -1.263102 0.538029 -1.038230
H 0.264081 -1.185342 0.945039
H -1.586963 2.255374 0.808863
H 0.821286 -2.274191 -1.077008
H -0.413567 1.315701 1.867370
N 0.517720 -1.320041 -1.240202
O -1.956965 0.127694 0.918160