21
H12 C8 O1
C -0.563609 0.148387 0.825309
C 0.304318 -0.069068 -1.570668
C 1.087691 0.940832 -1.281567
C -1.514282 -0.346379 1.896824
C -0.374850 -2.146785 -0.315727
C 1.178849 1.711833 -0.059598
O 1.923898 1.360340 -2.351581
C 0.198252 1.131564 0.997985
C -0.631819 -0.647339 -0.480213
H 0.221849 1.622792 1.964534
H 0.356355 -0.593002 -2.497564
H -1.441841 0.319978 2.746605
H 2.179912 1.676196 0.326063
H 2.497062 2.038148 -2.050092
H -0.401078 -2.735860 -1.318201
H 0.551900 -2.337433 0.154855
H -1.085070 -2.614092 0.342313
H -2.538795 -0.382620 1.516730
H -1.659587 -0.493736 -0.925938
H -1.261052 -1.365164 2.299039
H 0.971898 2.781388 -0.219054