16
H7 C5 N1 O3
C -1.094598 -0.312346 0.696666
C 0.277501 -0.255793 0.030242
C 1.435035 0.564628 0.696361
O 2.109836 -0.658397 1.021620
C -1.205684 0.841664 -1.255727
N -1.583795 1.485824 -2.232759
O -1.833875 0.673043 -0.040808
C 1.225779 -1.427483 0.321429
O 0.004458 0.082698 -1.317010
H 1.186761 1.177258 1.563242
H -1.080700 0.056631 1.797814
H -1.542525 -1.297057 0.659170
H 0.845525 -2.281271 0.822904
H 2.017422 1.187567 -0.072536
H -2.389217 2.002585 -2.014605
H 1.628074 -1.839584 -0.675991