19
H10 C6 N2 O1
C 0.462167 0.880751 -1.233321
C 0.045279 -0.381368 1.514452
N 1.309757 1.203095 0.180077
C -0.634191 -2.608915 1.816802
C 0.218285 0.816006 0.673501
N -0.415436 -1.552879 0.948987
C -0.757827 1.321785 -0.363542
C 0.877370 1.788064 -2.335551
O 0.572517 -0.261506 2.645923
H -1.716049 0.783669 -0.487579
H 0.317374 1.673533 -3.211020
H -0.905706 2.435757 -0.280624
H 0.460528 -0.152470 -1.422570
H -1.110118 -3.477390 1.253505
H 1.944527 1.588257 -2.574882
H 0.397501 -3.020241 2.183236
H 0.876045 2.836930 -2.006418
H -0.735887 -1.519742 0.030325
H -1.206163 -2.353312 2.668660