14
H6 C6 O2
O 0.229920 1.283482 0.545252
C 1.017421 -0.890322 1.299103
C -1.790391 0.526780 -0.668652
C -0.318518 0.822400 -0.705765
C 1.288288 0.373801 0.534285
C -2.932874 0.291578 -0.788248
C 0.596230 -0.441083 -0.656288
O 0.215788 -1.409772 0.180218
H 1.045055 -0.768271 -1.599512
H -3.944039 0.115033 -0.835210
H 0.452595 -0.714415 2.234204
H -0.049505 1.505674 -1.515220
H 1.895332 -1.531448 1.466005
H 2.294696 0.836547 0.509857