14
H5 C5 N3 O1
O 2.393952 -1.051223 -2.153888
C -1.017380 0.026828 0.027599
N 0.796869 0.508291 1.281317
C 0.102723 -0.392383 -0.617167
N -1.248147 1.030146 2.335826
C -0.518208 0.531603 1.191336
C 1.237065 0.005697 0.171096
C 0.292178 -0.853024 -1.964566
N 1.360634 -1.291474 -2.659576
H -0.762239 1.544899 3.042313
H -0.700401 -1.186038 -2.551428
H -2.046824 -0.104200 -0.234090
H -2.190668 1.291839 2.176128
H 2.300411 -0.060974 -0.044875