17
H9 C5 N1 O2
N 2.046335 -2.430250 -0.877861
C -0.345604 -1.236818 1.279327
O -0.329203 1.165809 0.177692
C 1.013688 -1.850160 -0.713762
C -0.173619 0.239674 -0.856344
C -0.184174 -1.167454 -0.264768
C -0.264446 2.568221 -0.336296
O 0.760240 -0.723352 1.900330
H -1.128113 2.675959 -1.015590
H 0.663457 2.757263 -0.895045
H 0.662856 0.445578 -1.538349
H 1.506477 -1.317353 1.851339
H -1.085010 -1.766818 -0.752190
H -1.073181 0.364985 -1.570376
H -0.380794 3.160643 0.476651
H -0.486910 -2.284847 1.553471
H -1.201998 -0.601090 1.581776