20
H11 C7 N1 O1
C -0.057136 -0.064984 2.406950
C 0.930378 -0.026127 1.303284
O -0.242540 1.523933 -1.836918
C -0.958750 0.455424 -1.735126
C 0.547503 1.600217 -0.721913
C 1.554565 -1.407411 1.129787
N -0.623828 -0.274978 -0.679264
C 0.352730 0.498677 -0.026005
C -1.916889 0.096888 -2.800033
H 2.348429 -1.397650 0.314474
H 1.242589 2.423690 -0.561084
H 0.718740 -2.165473 0.842016
H -2.393777 -0.868674 -2.572683
H 1.965341 -1.809873 1.961681
H 1.720085 0.659425 1.599825
H 0.389878 -0.384852 3.357812
H -0.921020 -0.751040 2.114865
H -1.441281 0.141072 -3.785184
H -2.693519 0.857766 -2.856778
H -0.521490 0.893953 2.544306