10
H3 C3 N3 O1
O 0.647915 0.774405 1.484019
C -0.147479 -0.194636 -0.417044
C -0.005130 -0.363461 1.687856
N -0.479452 -1.055327 0.648330
N -0.372365 -0.436216 -1.764459
N 0.975360 1.829914 -0.077952
C 0.508607 0.866965 0.017450
H -0.145472 0.366239 -2.311015
H -1.042087 -1.060187 -1.961159
H 0.060115 -0.727689 2.693956