18
H9 C7 N1 O1
O -1.025840 1.224638 2.014870
C -0.347675 -0.996970 -1.626034
C 0.274956 -1.113628 0.255909
C -0.241705 1.476405 0.901172
C 0.536426 0.142873 -1.382529
C -1.042046 -1.448417 -0.438968
C 1.280129 1.278532 0.977877
N 0.982293 -1.362219 -1.077067
C 0.444007 0.394276 0.167283
H 1.667598 0.927991 1.981046
H 1.945270 2.036387 0.472065
H -1.972523 -0.947508 -0.143655
H -0.569168 2.382432 0.322765
H 0.674516 -1.648811 1.123343
H -1.855102 0.751316 1.607629
H -0.637706 -1.272875 -2.685036
H 1.100514 0.738594 -2.083173
H -1.213961 -2.563040 -0.387531