21
H12 C8 O1
C -0.588691 -1.502313 0.072613
C 0.891655 -1.030700 -0.322093
C 0.020385 1.288839 -1.013190
C 0.950732 0.121321 -1.414857
C 0.932588 -0.604584 1.118938
C -1.566215 -0.335785 0.002282
O -0.146569 -1.571737 1.469467
C 0.269804 0.728213 1.396489
C -0.747037 0.932087 0.261957
H 0.718767 -0.323329 -2.406905
H 1.037030 1.481577 1.356058
H 0.575139 2.249634 -0.784370
H -2.352078 -0.477851 0.684584
H 1.510828 -1.858715 -0.561053
H -0.928024 -2.460178 -0.270724
H -0.213346 0.778949 2.388803
H 1.977472 0.414959 -1.465052
H -2.012071 -0.344038 -0.996174
H -0.681343 1.535306 -1.838372
H 1.815965 -0.799407 1.769783
H -1.465000 1.777779 0.551837