17
H8 C5 N2 O2
C 1.322920 0.850453 1.792735
N 1.418219 -0.492492 1.766747
C 0.561632 -0.994964 0.828858
C -0.794794 0.409293 -2.159921
C -1.282182 -0.017619 -0.762008
N 0.306966 1.128173 0.927594
C -0.197803 0.019727 0.238054
O 1.922987 1.675867 2.418409
O 0.511695 -2.377414 0.594372
H -1.593933 0.377578 -2.840114
H -0.066370 2.128603 0.791495
H -0.392100 1.404919 -2.103977
H -1.657164 -1.016922 -0.835023
H -2.083018 0.641322 -0.365492
H -0.110620 -2.483295 -0.131517
H 0.042960 -0.268234 -2.439205
H 2.090615 -0.984987 2.278996