16
H7 C5 N3 O1
N 0.510728 1.527408 1.821509
C -0.856527 -1.469660 -0.943556
C 0.994927 1.563301 0.473072
C -0.280348 0.529745 2.156968
O 1.730463 2.473105 0.074085
C 0.481776 0.502854 -0.391394
C -0.713037 -0.452549 1.337257
N -0.379073 -0.470605 -0.014817
N 0.860375 0.612164 -1.708486
H -1.663861 -2.059139 -0.415576
H -0.565711 0.549094 3.214043
H -1.389986 -1.294309 1.633022
H -0.046370 -2.143297 -1.299092
H -1.311282 -1.026186 -1.784975
H 1.635889 1.323278 -1.895627
H 0.992057 -0.165208 -2.256446