10
H3 C5 N1 O1
N 1.446675 2.069255 -1.238306
C 0.732053 1.366697 -0.698824
C 0.643740 0.007474 1.342120
C -1.138388 -1.568735 -1.186568
C -0.735943 -0.655517 -0.631432
C -0.163438 0.529027 0.127335
O 0.226844 0.135641 2.444815
H -1.090590 1.112397 0.475830
H -1.528509 -2.440234 -1.673647
H 1.607556 -0.555992 1.038684