12
H3 C3 N3 O3
O -0.239370 -1.303294 -0.528759
C 0.126797 -0.196340 0.160085
C 1.135623 0.621968 2.033480
O 1.792947 0.519807 3.096446
C -0.974944 -1.038780 -1.721942
O 0.134929 2.129270 0.535732
N 0.756910 -0.497223 1.260124
N -0.200268 1.036222 -0.326948
N 0.864993 1.889946 1.652564
H -1.881342 -0.585871 -1.553041
H -1.130131 -2.074518 -2.176109
H -0.386146 -0.501201 -2.431629