21
H12 C9
C -0.369022 -0.564749 1.485535
C -1.143398 1.835518 0.805371
C -0.749835 0.314078 0.703802
C 0.775563 -1.483525 1.001833
C 0.794444 -2.229427 -0.290968
C 1.569507 -0.944142 -0.168575
C -0.550245 0.493526 -0.808492
C -1.497063 1.658791 -0.735750
C 1.017952 0.330898 -0.963503
H 1.308290 -1.871698 1.795244
H -0.166762 -2.320585 -0.799392
H -1.007729 -0.310172 -1.483343
H -1.229413 2.483236 -1.354538
H 1.550269 1.198677 -0.479354
H -1.917601 2.065534 1.538638
H -0.815888 -0.750123 2.357987
H 1.318960 -3.192053 -0.383000
H -0.248355 2.570199 0.867522
H -2.551751 1.425111 -0.856956
H 2.612926 -1.039956 -0.246391
H 1.299138 0.330825 -1.985677