18
H9 C6 N3
C 1.383780 -1.254357 -0.962673
C 0.092232 0.641650 0.288590
C 1.276578 -0.233701 0.098612
N 1.273676 1.610399 2.140505
C 0.210354 1.564448 1.341925
C -2.040213 -0.618160 -0.315256
N 2.222454 0.744299 1.986908
C -1.084801 0.554048 -0.599739
N 2.276396 -0.098294 0.978402
H 2.360767 -1.738185 -0.837889
H -2.323185 -0.641141 0.753254
H -2.934663 -0.520553 -0.889485
H -1.704703 1.546416 -0.423979
H -0.837851 0.548730 -1.652122
H 1.330570 -0.797913 -1.968775
H -0.616048 2.252115 1.535070
H -1.515938 -1.582347 -0.516406
H 0.630613 -1.977447 -0.956972