17
H10 C7
C 0.370686 1.070408 -0.157816
C -1.218819 -0.290540 -0.129066
C 0.784168 -1.087799 1.672758
C 0.200080 -0.355726 0.481628
C -0.058913 -0.814889 -0.978074
C -1.122434 1.202274 -0.152302
C 0.617248 0.398887 -1.531767
H -1.597161 1.843657 -1.003639
H 1.724007 0.127023 -1.671753
H -0.162608 -1.857192 -1.331839
H 0.284962 -2.040910 1.833902
H 1.051734 1.834062 0.242572
H 0.320392 0.875274 -2.424771
H -1.500443 1.744760 0.770429
H 1.830452 -1.230278 1.573987
H -2.086854 -0.904728 0.206284
H 0.563515 -0.514329 2.599505