15
H6 C5 N2 O2
C 0.110596 -0.198944 0.814155
O 1.215635 0.472454 1.257945
C -0.135503 0.186338 -0.307291
C 1.641033 1.326066 0.278344
O -1.401426 -1.991318 0.793481
N -0.779442 0.910558 -2.246447
C 0.104429 0.751466 -1.151983
C -0.624754 -1.238452 1.714400
N 1.089224 1.457325 -0.893387
H -1.375906 0.069543 -2.410659
H -1.323773 -0.686264 2.321362
H -0.839274 -2.365152 0.057516
H -0.298032 1.253047 -3.039819
H 2.544608 1.862762 0.563231
H 0.072605 -1.809421 2.249166