21
H12 C7 O2
C 0.299940 0.179506 -0.180274
C 0.353022 1.608837 -2.367117
O 0.983734 1.241505 0.367985
C 0.962261 -0.611586 -1.255277
C -0.091354 0.384960 -1.625412
C -0.546389 -0.693698 0.768851
C 0.308830 -1.628682 1.543054
C -1.403535 0.227131 1.702005
O 1.658599 -1.431595 -1.665596
H -2.054286 0.899447 1.159925
H 1.049879 -1.171315 2.168689
H -2.042273 -0.461954 2.356058
H -0.234183 2.467491 -2.238989
H -0.772653 0.714195 2.347581
H 1.367883 1.907266 -2.106087
H -1.142476 0.055298 -1.838765
H -1.265510 -1.296262 0.146859
H 0.349658 1.406029 -3.471709
H 1.634969 0.830443 1.076627
H -0.320890 -2.294457 2.204166
H 0.904776 -2.332565 0.907451