14
H6 C5 O3
O 0.922538 -1.024966 2.424357
C -0.399542 -0.315388 -1.083522
C -1.224238 1.809444 -2.418396
C 0.529674 -1.333785 1.093966
O -0.311409 -1.428398 -1.577253
C -0.080385 -0.140136 0.403631
C -0.769692 0.864052 -1.791028
O 0.833270 0.996090 0.626078
H 0.417629 1.786221 0.357940
H 1.459475 -0.223196 2.366020
H -0.173106 -2.135699 1.109319
H -1.513930 2.670170 -2.899429
H -1.083448 0.117814 0.907817
H 1.393155 -1.642245 0.480491