15
H6 C5 N2 O2
C 1.140086 0.829717 0.568128
N -0.095785 0.523040 0.020227
N -1.654713 -1.024183 -0.908891
C -0.851498 1.674822 -0.368613
C -0.588537 -0.724532 -0.391608
C 1.516740 -1.543895 0.708681
O 1.630280 1.881064 0.820651
C 0.302518 -1.850822 0.126304
O 1.871930 -0.239443 0.940874
H 2.196138 -2.296743 1.008504
H -1.864019 1.621919 0.148306
H -2.200933 -0.243737 -1.075571
H 0.049574 -2.833281 -0.106172
H -0.326388 2.528562 -0.053867
H -1.125393 1.697508 -1.436934