18
H10 C6 O2
O -1.992446 -1.086344 -1.783144
C 0.216946 0.110381 0.682147
C -0.575637 -0.502576 1.776587
C 0.309856 0.561754 -1.924107
C -1.818055 -0.298836 -0.916392
O -0.330732 1.450946 0.241684
C 1.681355 -0.102552 0.812136
C -0.378169 0.306640 -0.696422
H 2.088595 0.321023 1.776909
H -1.697947 -0.358182 1.698917
H 1.960011 -1.115242 0.739787
H -0.274593 -0.017167 2.793956
H 0.516949 -0.393844 -2.493266
H -0.232734 1.191761 -2.635302
H -2.603295 0.074922 -0.264288
H -0.406232 -1.594819 1.851861
H 1.291668 1.047120 -1.704344
H 2.244458 0.404994 0.043270