13
H7 C4 N1 O1
C 0.567240 0.751509 1.698134
C -0.045306 0.362341 -0.731244
C -0.552254 -0.628136 -1.696267
C -0.973626 -1.446019 -2.461252
H -0.666531 1.258270 -0.779551
H -0.022648 1.687940 1.598830
H -0.921134 -0.556388 0.849793
H 0.432397 0.459674 2.753190
H 0.676633 -1.010791 0.663709
H 0.977029 0.666791 -0.998842
H -1.346973 -2.205968 -3.123486
N -0.003452 -0.179479 0.651089
O 1.878637 0.840252 1.575884