13
H7 C4 N1 O1
C 1.209170 -1.109277 -0.193460
C -0.642172 -0.131228 1.351219
C -0.549923 0.798089 0.039569
C -0.215464 -0.642985 0.043964
H -0.577098 1.329718 -1.923823
H 1.368667 -2.116267 0.231185
H 1.431120 -1.190317 -1.236184
H -0.937661 2.591422 -0.801623
H -0.951446 -0.701428 2.272595
H 1.933818 -0.430223 0.273009
H -0.951747 -1.290539 -0.427902
N -0.543011 1.702315 -0.997821
O -0.574261 1.190761 1.369260