17
H10 C5 O2
C -0.822319 -1.411617 0.839058
C -1.082605 0.311982 -1.020387
C -0.554777 1.541223 -1.741749
C 1.926336 -0.222044 1.017907
C -0.340591 -0.076012 0.263157
H 2.956787 -0.035676 0.667123
H -0.526930 0.721343 1.009251
H -1.911423 -1.422482 0.861557
H 0.472236 1.400399 -2.053143
H 1.884772 -1.240203 1.414703
H 1.709274 0.467055 1.846429
H -0.434429 -1.565941 1.854720
H -0.594227 2.392247 -1.074425
H -0.485568 -2.230304 0.215828
H -1.200208 1.737388 -2.605668
O 1.057200 -0.038386 -0.078728
O -2.053530 -0.328957 -1.415629