17
H10 C5 O2
C -0.341000 -0.550897 -0.459034
C 0.361986 -0.804327 0.906409
C -0.906624 0.784630 0.112949
C 0.163868 0.697305 1.246534
C 0.635459 -0.372394 -1.625519
H -0.221445 -1.449050 1.557315
H -1.915066 0.677940 0.500722
H 1.066493 -1.342036 -1.892130
H 1.408475 -1.146865 0.873417
H -1.934789 -1.711899 -0.184170
H 1.108705 2.371915 1.000753
H -0.861333 1.677307 -0.524692
H 0.120258 0.021473 -2.501744
H -0.177133 0.910000 2.271627
H 1.445486 0.313532 -1.346232
O -1.302998 -1.507434 -0.901168
O 1.349658 1.430805 0.965008