17
H10 C5 O2
C 0.818480 0.934216 -0.060505
C 0.020272 1.921375 0.704763
C -1.109498 1.497213 1.615310
C 0.507950 -1.093560 -1.155705
C 0.052955 -2.520817 -0.878213
H -1.535156 0.523939 1.316122
H 0.698491 -3.002119 -0.135592
H -0.781160 1.398077 2.656968
H -0.152230 -0.604824 -1.871984
H 1.846589 1.145962 -0.324539
H 1.544746 -1.060014 -1.563322
H 0.519589 2.850266 1.002181
H 0.089206 -3.101616 -1.809241
H -0.975040 -2.520802 -0.489450
H -1.910046 2.263565 1.579897
O -0.148213 1.753832 -0.682934
O 0.513080 -0.384694 0.096267