17
H8 C8 O1
C 0.095363 -0.472113 -0.356469
C -0.587355 1.650664 -1.169275
O -0.741226 1.999025 1.088473
C -0.576341 -3.119401 -0.400854
C -0.184265 -1.642147 -0.384853
C 0.547370 1.124642 -0.373294
C 2.119570 0.798810 1.880953
C -1.622752 1.996752 -1.954326
C 1.428120 1.016588 0.932307
H 1.346614 1.060776 -1.132273
H -0.002691 -3.562513 -1.259859
H -2.327351 2.352358 -2.707289
H -0.211909 -3.481489 0.556687
H 2.728833 0.545748 2.754350
H -1.597537 -3.146463 -0.478225
H 0.989507 2.472704 -0.257011
H -1.251320 1.202998 1.092882