15
H7 C5 N1 O2
C 1.577314 0.337586 -0.241071
C 0.117072 0.372334 1.240840
C -1.740129 -0.158837 -0.649862
N -0.386642 -0.781724 -0.929477
C -0.518996 0.701864 -1.011004
O 0.304424 1.392976 -0.049724
C 0.609014 -0.771203 0.291533
O -1.006688 -0.212662 1.698074
H -0.387802 1.116251 -1.950946
H 0.667219 0.829562 2.125893
H 1.933874 0.226654 -1.261864
H -2.407419 -0.449884 -1.432890
H 0.904101 -1.718278 0.687643
H 2.385337 0.536387 0.401407
H -2.184520 -0.058781 0.325608