18
H9 C6 N1 O2
O -0.522121 -0.216644 3.063788
C -1.460776 -0.747316 -1.073270
C -0.117148 -1.200019 -0.531060
N 0.861300 1.125897 -0.813294
C 0.361018 -0.833822 0.956136
O 0.465121 2.505536 1.010622
C -0.473616 -0.055959 1.816325
C 1.063010 -0.228205 -0.368266
C 0.701803 2.247930 -0.165508
H -1.449727 -0.818973 -2.162844
H -1.133855 0.652139 1.474674
H 2.048021 -0.609528 -0.510594
H -2.228926 -1.489890 -0.754209
H -1.711474 0.201519 -0.720197
H 0.742280 3.108554 -0.872093
H 1.027535 -1.581418 1.446205
H 0.162590 -2.272974 -0.804084
H 1.135617 1.164958 -1.788437