15
H6 C6 N2 O1
N 0.756548 0.839076 -0.806772
C -0.453653 0.825802 0.082058
C 1.455803 -0.443807 -0.285844
C 0.338781 -1.422061 -0.165335
N 1.336136 -0.297984 1.225457
C -0.153394 -0.422677 0.941321
C -2.720025 0.689849 -1.248188
C -1.750845 0.717575 -0.675101
O -0.074981 -2.506346 -0.584293
H -0.806948 -0.724728 1.728316
H -3.685482 0.581955 -1.851582
H 1.673796 -1.176987 1.665917
H 2.457551 -0.612491 -0.770035
H -0.437153 1.689652 0.749195
H 1.368731 1.577133 -0.462864