17
H8 C5 N2 O2
N 1.039686 1.750346 0.120850
C 0.470957 0.641082 0.201261
N -2.089305 0.797071 0.226097
C -0.822848 0.247793 -0.373847
C 0.525861 -1.701742 -0.154532
C 0.939685 -0.645117 0.976084
C -1.703366 1.098932 -1.218200
O 2.286894 -0.616275 1.210568
O -0.722588 -1.149064 -0.668478
H 1.290512 -1.688317 -0.882029
H 0.372183 -0.791383 1.832261
H -1.514755 2.122830 -1.414428
H 2.377691 0.065669 2.013736
H -2.314322 0.519473 -1.915257
H -2.752564 0.120720 0.368847
H 0.251881 -2.775320 0.239866
H 2.029279 1.701926 0.417014