10
H1 C4 N3 O2
O -0.580768 0.212920 1.122935
C 0.598382 -0.031970 -1.031970
O 1.007945 0.415484 -2.013159
N 0.496437 -1.838369 0.420475
N -0.827056 3.193484 -0.424061
C -0.230247 -1.096654 1.214675
C -0.555711 2.123921 -0.243901
C -0.133664 0.772091 -0.043580
N 0.856918 -1.383198 -0.746829
H -0.534836 -1.624438 2.179244