19
H11 C6 N1 O1
C 0.885443 -0.254902 1.773419
N -1.484301 0.199777 -0.955402
C 1.187140 0.147864 -1.656074
O 0.332754 1.787879 0.581976
C 0.019312 -0.088302 -0.758786
C -1.574903 0.255167 0.634771
C -0.042249 0.415729 0.700619
C -0.990260 -1.137139 -1.134183
H -1.267588 -1.908946 -0.465835
H -2.110517 1.130676 0.960271
H 1.494186 1.188891 -1.571583
H 0.682097 -1.311037 1.846004
H 0.088336 2.204855 1.411762
H -0.976217 -1.465999 -2.173720
H 2.105406 -0.543502 -1.477437
H -1.880338 -0.709985 1.101585
H 0.919649 0.026358 -2.743709
H 1.926603 -0.080356 1.422071
H 0.687904 0.230646 2.695174