18
H10 C7 O1
C -0.351500 -0.511178 -0.549650
C -0.396884 -0.422151 0.968324
C -0.809747 0.744905 0.161962
C 0.941606 0.048760 -1.008331
C 0.780327 1.179825 0.137877
C -1.186974 -1.471646 -1.440950
C 0.831927 0.299421 1.472585
O 0.525158 1.046265 2.599631
H 1.192941 2.134964 0.132544
H 1.224590 1.625175 2.798620
H -1.699189 1.289790 0.029509
H -1.042570 -0.969941 1.577570
H -2.222417 -1.605925 -0.956459
H -0.698893 -2.461218 -1.403601
H -1.334331 -1.070007 -2.411992
H 1.745775 -0.227932 1.609141
H 1.955078 -0.542760 -0.892490
H 0.950633 0.542685 -2.017969