14
H5 C4 N5
N 1.145902 0.160913 -0.903781
C -1.220505 1.421487 1.582144
N -2.431943 -0.630436 1.454315
N -2.242303 0.608015 1.849065
N -1.605277 -1.407117 0.689660
C 1.635289 -0.952119 -1.634425
C 0.142710 0.006891 -0.084876
C -0.194001 1.224682 0.739734
N -0.521910 -1.252370 -0.030516
H -1.222440 2.369496 2.092395
H 0.851465 -1.496034 -2.153350
H 2.200062 -1.588953 -1.052010
H 0.483947 2.045336 0.512865
H 2.221899 -0.563080 -2.486976