18
H9 C7 N1 O1
C -0.590144 -0.146817 1.143349
C -0.359782 1.882726 0.051032
C -1.285380 1.016539 -0.817623
C -1.410277 0.923112 0.731533
N 0.741763 1.143574 0.413117
C 1.641574 -1.061117 0.212520
O 1.145531 -2.442297 0.206736
C -0.315054 -0.098123 -1.297120
C 0.441037 -0.141044 0.050228
H -0.753759 -0.858529 1.967371
H 2.271716 -0.910004 1.099424
H 0.329207 0.141823 -2.119550
H 1.952301 -2.977859 0.312767
H -0.355152 3.015199 0.126894
H -2.262998 1.338744 1.225593
H 2.328423 -0.966959 -0.715637
H -0.868541 -1.033741 -1.441940
H -1.959993 1.439553 -1.538434