17
H9 C5 N1 O2
O -0.992024 -2.112975 1.886836
C 0.950238 2.146847 -0.952265
C -0.946849 -1.140269 -0.338760
C -0.178218 -1.581637 0.921990
N -0.122795 0.032108 -0.328889
C -0.025411 0.990899 -1.264716
C 0.282063 -0.132398 1.067535
O -0.650921 0.998431 -2.347400
H -2.009014 -0.988891 -0.174604
H 1.971270 1.759578 -0.641458
H 1.000904 2.779897 -1.768334
H 0.587876 2.659661 -0.070360
H 1.319680 -0.008164 1.248736
H -0.924246 -1.802671 -1.257843
H 0.614114 -2.225580 0.676828
H -1.019406 -3.037691 1.850176
H -0.328482 0.428326 1.776700