18
H9 C6 N1 O2
O -1.213287 0.709778 -0.833781
C 0.002748 2.525869 -1.843505
C -0.997322 -2.627717 2.070351
N 1.301022 -0.439297 0.320055
C 0.634167 -1.073077 1.017120
C -0.093306 1.243148 -1.043046
C -0.737349 -1.822278 0.807187
C 1.189480 0.786294 -0.531461
O -0.997204 -3.772205 2.163406
H -0.769482 -2.495309 0.038888
H 1.647841 1.590455 0.066902
H 0.558483 2.289868 -2.835283
H -1.570362 -1.037934 0.695897
H 1.175971 -1.389102 2.034042
H -1.134651 -2.023161 3.019557
H 0.595183 3.328487 -1.382679
H 1.954028 0.533442 -1.360931
H -0.920681 2.933441 -2.049169