14
H5 C6 N1 O2
O -0.606963 -1.168435 -0.165620
C -1.173342 0.098406 -0.769595
N -0.138054 -0.789907 3.452815
O 2.059631 0.953498 0.361427
C -0.040025 0.925203 -1.021060
C 0.155008 -0.504426 1.001461
C 1.053296 0.346220 0.019034
C -0.067791 -0.606613 2.308446
C 0.825969 -1.104153 0.023009
H -1.686754 -0.185473 -1.713551
H 1.466237 -1.965742 -0.148000
H 0.378103 0.823747 -2.047066
H -1.884548 0.580837 -0.188745
H -0.151279 1.945293 -0.924854