15
H6 C6 N2 O1
N 0.352959 0.707793 -1.133547
C -1.963835 0.743718 -1.776860
O -0.310256 -0.677859 1.193183
C 1.938922 -0.821285 1.923332
C 1.294948 0.299089 -0.227811
C -0.879960 0.412427 -0.847130
C 0.972749 -0.382162 0.891316
C 2.684057 -1.126660 2.803684
N -1.197023 -0.258450 0.261595
H -2.119944 -0.581401 0.456440
H 2.312965 0.389201 -0.469759
H -2.288378 -0.040650 -2.423809
H -1.541744 1.622733 -2.448677
H 3.376498 -1.477586 3.510950
H -2.868011 1.246816 -1.230179