16
H7 C8 N1
C 0.470920 0.005730 1.806220
C 0.758547 1.431480 -0.234192
C -0.094038 -0.495753 -1.719286
C 0.672108 -0.117559 3.020735
C -1.361239 -0.200427 0.007197
C 0.987988 -0.019949 -0.770970
N -1.430379 0.175444 -1.422762
C 0.171448 0.280847 0.474838
C -1.195918 -1.216493 -0.992316
H -1.789164 -2.066512 -1.222705
H -2.209903 -0.019273 0.625669
H 1.598470 1.931162 0.180822
H 0.145029 2.187240 -0.833539
H 0.961908 -0.328305 4.015026
H 0.131762 -0.610380 -2.827404
H 1.877464 -0.568375 -0.722001