17
H8 C7 O2
C -0.375627 -1.549219 -0.304731
O 0.152952 1.908118 0.442347
C -1.746119 0.172558 0.879813
C -2.727034 0.307405 1.530595
C -0.448263 -0.106078 0.211792
O 2.189556 -0.349074 -1.031056
C 1.546299 0.767820 -0.496668
C -0.008742 1.046148 -0.748690
C 0.762591 0.650812 0.863807
H 0.508222 -1.700572 -0.857130
H 2.786293 -0.118262 -1.809989
H 2.117961 1.694248 -0.569514
H -0.366339 -2.244028 0.577352
H -0.471393 1.456286 -1.722516
H -3.663290 0.393727 2.134376
H -1.294897 -1.864932 -0.851837
H 1.167165 0.571410 1.840660