19
H10 C6 N2 O1
C -0.801682 -0.832323 1.326541
C -0.404613 -1.043384 -0.927444
N -1.001557 -0.266561 0.011066
C 0.344382 0.554908 0.702735
N -1.075063 -1.519135 -2.058427
C 1.043524 -1.334160 -0.869353
O -0.685561 2.657421 0.883411
C 0.171285 1.948696 0.076668
C 1.390681 -0.286751 0.191610
H -0.531183 -1.844694 1.567925
H -2.026393 -1.195973 -2.008374
H -1.376537 -0.335702 2.069963
H 0.772839 0.661937 1.936797
H 1.169251 2.466042 0.202004
H 2.390719 -0.043885 0.327618
H -1.621659 2.388265 0.624229
H 1.268687 -2.359589 -0.450752
H 1.541114 -1.244860 -1.830154
H -0.102407 1.956595 -1.007031