19
H10 C5 N2 O2
O 1.006315 0.839721 -1.941439
C -0.193950 -0.115107 -0.040772
C 1.857564 -1.543257 -0.173760
N 0.552210 -1.237974 0.375329
C -2.407486 0.962631 0.821570
O -0.736868 0.168929 2.231025
C -1.083391 0.292910 1.117995
C 0.498547 1.126469 -0.746095
N 2.439683 -2.568689 0.239259
H 2.129264 -1.009544 -0.982025
H 1.293354 1.379480 -0.106816
H 3.312423 -2.674795 -0.266592
H -2.970019 1.042809 1.819058
H 0.400732 -1.494045 1.321069
H -0.904014 -0.507229 -0.935451
H 0.252250 0.865014 -2.649745
H -3.123125 0.296893 0.091347
H -0.238548 1.998039 -0.784620
H -2.342798 1.928518 0.402260