19
H10 C6 N2 O1
C -0.250400 -2.660290 -0.845352
C 0.942204 1.373315 0.433693
C -0.451647 0.688744 0.457976
C -0.597585 -0.571168 -0.277317
C 1.020823 2.524120 1.428639
N -1.637343 -0.871171 -1.136155
O 0.381511 -3.794343 -0.908211
N 0.277127 -1.564509 -0.192132
C -1.480667 -2.221546 -1.461793
H 1.997832 3.013698 1.357491
H -1.250490 1.414609 0.160503
H -2.146307 -2.874810 -1.914142
H -0.699023 0.359613 1.567328
H 1.679344 0.532024 0.621517
H 0.369139 3.346358 1.161329
H 1.002071 2.228392 2.435301
H 1.125456 1.693341 -0.628865
H 1.198509 -3.571670 -0.379785
H -1.668539 0.033055 -1.668027