19
H10 C7 O2
C -0.888477 0.502640 -0.820271
C -2.318670 0.205350 1.227549
C -0.273044 -1.205761 0.715032
C 0.535957 0.030470 -1.158217
C 2.219974 0.585200 0.089847
O 1.608499 0.999361 -1.131627
C 0.938927 -0.830839 0.004424
O -3.458845 0.003553 1.366546
C -1.433538 -0.563397 0.242885
H -0.823065 1.507030 -0.365314
H -1.712591 0.913899 1.892122
H 1.636510 -1.664792 -0.103241
H -1.588843 0.660692 -1.706571
H -2.178907 -1.273148 -0.333183
H 0.581410 -0.417128 -2.193297
H 2.763110 0.653205 0.796102
H 1.518952 1.271011 0.867878
H 3.269271 0.253174 -0.694081
H -0.338225 -1.965749 1.518447