14
H8 C4 O2
C 0.345542 -0.196962 0.489099
C 1.620265 0.377312 -0.001187
C -0.622689 0.900872 0.991064
O -0.763674 -0.089866 -1.657411
C -0.437171 -0.933521 -0.647589
O 2.572765 0.473494 0.600161
H -1.103496 -0.646025 -2.353272
H 1.546920 0.776385 -1.109417
H 0.556416 -0.898314 1.287156
H -0.893634 1.611905 0.228507
H 0.246936 -1.752034 -1.021917
H -1.479248 0.484318 1.444464
H 0.008480 1.528193 1.777619
H -1.256818 -1.439975 -0.222285