17
H8 C7 O2
O 2.455805 -1.155271 -0.241413
C 0.039194 -0.484236 -0.236369
C -0.238746 -0.063465 1.254050
C 1.584338 -0.529229 0.187647
C 1.208015 0.431715 1.269997
O -1.480949 1.351726 -1.173836
C -0.161125 1.003391 -0.671502
C 0.108909 1.376963 0.787566
C -0.632418 -1.644332 -1.014636
H -0.061221 2.340069 1.276658
H -0.067422 -1.769347 -1.972411
H 1.827081 0.677372 2.116630
H 0.543056 1.324992 -1.436307
H -0.912287 -0.388203 1.991727
H -1.670690 -1.379133 -1.183264
H -0.488392 -2.615405 -0.493864
H -2.053119 1.522399 -0.460677