17
H9 C5 N1 O2
O 1.407002 0.248124 -1.903682
C -1.205464 0.206902 0.782852
C 1.299168 -0.107802 1.055921
C -2.366888 0.221484 -0.040590
C 0.140301 -0.176410 0.052214
N -3.249426 0.256688 -0.891515
C 0.374739 0.714398 -1.117259
O -0.035798 -1.446446 -0.474649
H -1.405347 -0.530324 1.511902
H 1.311551 0.869992 1.632713
H 2.242150 -0.173283 0.549988
H -0.549928 0.809396 -1.752732
H 0.687908 1.729076 -0.777509
H -1.109281 1.122265 1.282443
H 1.242592 -0.714709 -1.984278
H 1.215029 -0.876718 1.790065
H 0.001672 -2.152639 0.284092