18
H9 C7 N1 O1
O 2.397600 -0.166424 2.711868
C -0.094960 -0.590411 0.658757
C 0.331738 0.104462 -1.378395
C 1.491194 -1.154594 0.536353
N 1.431585 -0.002742 -0.426954
C -0.922987 -0.307765 -0.632281
C -2.003920 0.746179 -0.460277
C 0.889511 0.636456 0.901265
C 1.816826 -0.236423 1.700357
H -2.561540 1.018649 -1.395910
H -1.327049 -1.245173 -0.956173
H -0.588255 -1.127469 1.464245
H 1.888221 -2.018126 0.211877
H -2.798351 0.472923 0.229126
H 0.582768 -0.666001 -2.183114
H -1.527507 1.750158 -0.121821
H 0.645883 1.706091 0.998346
H 0.349262 1.080200 -1.857269