18
H9 C7 N1 O1
C 1.049979 0.499547 -0.858033
C -0.105458 -0.080848 1.391753
C 0.714853 0.896763 0.573315
C 0.140162 -1.517482 0.869570
C -1.027151 0.784137 -1.180725
O -0.972706 -2.511523 -0.993726
C -0.350748 -1.578462 -0.510803
C 0.135820 1.640792 -0.584597
N -0.048048 -0.440872 -1.308349
H 0.330917 2.649488 -0.807194
H 0.196501 -0.033568 2.438723
H 2.060929 0.379090 -1.298730
H 1.236770 -1.759570 0.968542
H -1.383981 1.098144 -2.146491
H 1.488386 1.455705 1.075953
H -1.880927 0.684485 -0.481919
H -1.231117 0.134617 1.404855
H -0.354191 -2.300449 1.447857