23
H14 C8 O1
C -0.609130 -1.805534 0.586861
C -0.679258 1.724379 0.316268
C 2.493587 -1.366629 0.638334
C 1.579548 -0.306294 0.029343
C 0.112598 -0.669907 -0.161539
O 2.063568 0.754818 -0.290092
C -1.666260 2.866654 -0.086590
C -0.776873 0.466229 -0.545359
C -0.176229 -2.025441 -0.874914
H -1.586963 -1.711008 0.734296
H -0.019187 -2.338788 1.294843
H -1.702912 3.058109 -1.156622
H -0.521237 0.774474 -1.600348
H 2.566335 -2.242495 0.034142
H 0.636712 -2.693352 -1.125541
H 0.409064 2.173784 0.200024
H -0.804885 1.495873 1.310741
H -0.890232 -1.963940 -1.691133
H 2.154640 -1.655779 1.625240
H -2.765301 2.503705 0.084485
H -1.496857 3.746048 0.514150
H -1.832643 0.167419 -0.561029
H 3.511930 -0.952330 0.724454