23
H14 C9
C -2.593963 1.162334 1.568956
C -1.241200 1.189818 2.180079
C -1.367205 1.075942 0.721078
C 0.645508 -0.153701 -0.175285
C -0.869921 -0.214347 -0.011290
C 1.147180 0.036430 -1.624770
C 2.540788 -0.362974 -0.953750
C 1.499105 -1.341894 -0.389572
C 0.923691 -1.481003 -1.779353
H -1.160453 -1.059992 0.651773
H 3.052811 0.308246 -0.391719
H 3.231510 -0.858561 -1.714288
H -3.136475 0.156213 1.680924
H 1.526579 -2.029722 -2.536661
H -0.151620 -1.839725 -1.888132
H 0.869737 0.823533 -2.394550
H -1.392626 -0.220685 -0.888716
H 1.071303 0.634050 0.483160
H 1.727286 -2.174186 0.301128
H -0.910205 0.314453 2.732307
H -3.288256 1.969085 1.580767
H -0.920736 2.073630 2.646471
H -1.202837 1.993058 0.201423