13
H4 C4 N2 O3
O 1.342408 3.215492 0.854296
C -0.229932 1.480368 0.029461
C 0.830265 2.093792 0.980075
O 0.023801 -3.028352 -0.928760
C -0.002830 -1.799082 -0.661059
N -0.678103 -1.241990 0.332728
C -0.434451 0.070971 -0.093827
N 0.483844 -0.696136 -1.268034
O -1.351856 1.070515 0.572285
H 0.700673 -3.121683 -1.715164
H 1.002265 1.421257 1.880203
H -0.221961 2.014145 -0.926940
H -1.464117 -1.479286 0.944720