14
H5 C6 N3
C -0.284035 -1.038360 -0.665896
N 0.073105 2.792964 1.321582
C -0.837167 -0.653828 0.651214
C 0.238671 1.726678 1.189287
C 2.040018 0.025081 -1.135942
C 0.460771 0.235107 0.938807
C 0.932154 -0.284044 -0.408346
N 2.990799 0.278922 -1.642068
N -1.434076 -0.160272 -0.554270
H -1.281998 0.891923 -0.701678
H -0.321475 -1.956788 -1.204413
H -1.381472 -1.119804 1.377516
H -2.225208 -0.545350 -0.957594
H 1.029918 -0.192240 1.791781