18
H9 C7 N1 O1
C 1.311985 -0.774584 0.947079
C -1.147155 -0.799097 -1.155653
N 1.241562 0.724045 0.848797
C -1.227971 -0.404849 0.313403
C -1.049935 1.145160 0.302775
O -0.521146 -2.057618 -0.761475
C 0.204272 -0.968701 0.073828
C 0.272107 -0.164566 -1.137733
C 0.367859 1.149021 -0.255957
H -1.926224 -0.742380 -1.911639
H 2.253146 -1.178983 0.628376
H 2.201142 1.118330 0.791749
H 1.258343 -1.043207 2.018475
H 0.954679 -0.416810 -1.950000
H -1.820755 1.592138 -0.327938
H 0.668446 2.141900 -0.700999
H -1.875333 -0.927131 1.029689
H -1.165045 1.607340 1.247192