17
H8 C7 O2
C 0.190283 -0.715358 -0.256531
C 1.167235 0.409514 -0.158882
O -2.853539 0.534625 -1.655610
C -1.910485 0.145979 -0.982928
C 1.745541 0.309200 1.189456
O -1.748622 0.536327 0.256901
C -0.750242 -0.771790 -1.444638
C -0.623969 -0.094289 0.834711
C 0.489437 0.938313 1.008578
H 0.632565 -1.712969 -0.127191
H -1.186188 -1.739780 -1.664544
H 1.566944 0.985557 -1.008404
H 2.659225 0.784189 1.276790
H 1.670893 -0.506960 1.997233
H -0.938335 -0.727881 1.729896
H 0.223348 2.032743 1.355262
H -0.334087 -0.407436 -2.350121