16
H8 C5 O3
O 2.832370 -1.737191 1.725231
C 0.282146 0.498682 0.786173
C -0.795812 -1.061658 -1.038817
C 1.825064 -0.983769 1.664291
C -0.788918 1.549679 -1.332817
C -0.601607 0.335275 -0.370020
O 1.474472 -0.248523 0.643924
O -1.752359 1.204821 -0.351957
H 0.162529 -1.470258 -1.248949
H -1.220390 -1.734619 -0.267959
H 1.079010 -0.953579 2.528651
H -1.473490 -1.003692 -1.888252
H -1.040106 1.385275 -2.367394
H -0.313682 0.186732 1.670307
H 0.553491 1.565083 0.916174
H -0.222715 2.467732 -1.068583