17
H8 C5 O4
O 1.324121 -1.560921 0.095993
C -0.702673 -0.162947 -0.547528
C 0.576356 -0.730164 -0.013348
O -1.204721 -1.429212 -2.486729
C 0.293340 0.617774 0.305389
O -1.908383 -0.410661 0.070930
C -0.640822 -0.176006 -2.059303
O -0.042976 0.852891 1.674398
C 1.115090 0.968284 2.474659
H 0.782907 1.385190 -0.143739
H -2.335664 -0.980627 -0.572857
H -0.799979 -2.079126 -1.939582
H -1.356709 0.612957 -2.450064
H 1.717013 1.903717 2.118175
H 0.345854 0.024424 -2.412971
H 1.901618 0.164097 2.384818
H 0.935635 1.000332 3.501765