18
H9 C6 N1 O2
C -0.418998 0.971401 1.070661
C -1.327665 -0.379327 -1.590651
C 0.447653 1.248815 -1.335230
O -0.844144 0.805692 -1.901166
C 0.041103 -0.399029 0.571457
N -0.729707 -0.992380 -0.461278
O -2.257164 -0.888554 -2.199648
C 0.626614 0.909960 0.046198
C 0.877015 -1.331745 1.388309
H -0.207254 1.212270 2.096815
H 0.160782 -1.992088 1.950629
H -1.252243 -1.911360 -0.319465
H 1.500512 -1.977147 0.792104
H 0.494600 2.353209 -1.524922
H 1.671021 1.156980 0.478176
H 1.260221 0.796654 -1.996322
H -1.459406 1.267879 0.728224
H 1.417057 -0.851247 2.206052