17
H8 C8 O1
C -1.196911 0.277656 1.404348
C -0.223338 0.141682 -1.547280
C 0.317787 -1.782620 0.017173
C 1.264995 1.384960 0.131018
C 2.343893 1.946230 0.457638
O -1.077587 1.423043 0.399270
C -0.352821 -0.553790 0.577832
C 0.095083 0.763776 -0.124651
C -0.753677 -1.106635 -0.773533
H 3.253914 2.426826 0.609909
H -2.265346 0.063084 1.597401
H -0.916991 0.757680 -2.000886
H -1.683308 -1.558027 -1.047589
H 1.384328 -1.747863 -0.161512
H -0.762838 0.579398 2.407262
H 0.036596 -2.861664 0.308072
H 0.536223 -0.153749 -2.254462