15
H6 C5 N2 O2
C 0.061391 0.385329 2.639862
C 0.768863 0.934493 -1.598894
O -1.158744 -1.815198 -2.691354
C 0.180487 0.097605 -2.407149
C -0.615345 -1.012911 -2.009814
C -0.040492 -0.209513 0.228064
O -0.739968 -1.151838 -0.596488
N 0.639166 0.798289 -0.148638
N -0.251344 -0.533881 1.448869
H 0.334084 0.167022 -3.504500
H 0.816248 1.060284 2.340869
H -0.940090 -1.133883 1.739296
H 1.351961 1.717011 -1.932753
H -0.794581 0.958161 3.045107
H 0.388364 -0.260968 3.447555