16
H7 C6 N3
C -1.339507 -1.170030 1.139033
C 0.919312 -1.303965 0.103461
C -0.117121 0.474984 -0.490020
C 1.321441 0.023973 -0.413763
N -0.867898 1.232685 -1.477257
C -0.679875 1.789537 -0.073656
N 1.604809 -0.305634 1.040321
C -0.524437 -0.939337 -0.034986
N -2.044890 -1.238101 2.053720
H 2.143822 0.261326 -1.151800
H 1.476135 -2.281758 0.025075
H -0.975322 -1.498558 -0.886810
H -1.551664 1.765146 0.622948
H 2.629013 -0.551474 1.111787
H -0.147537 2.660860 0.061619
H -1.846259 1.080374 -1.629666