14
H5 C4 N3 O2
C -0.957973 -0.887600 -0.451758
N -1.100674 0.355972 -0.743763
C -0.178081 2.627349 -0.646166
O 0.962299 0.763857 0.427837
C -0.125276 1.172921 -0.300238
N 1.089098 -0.518611 0.802824
O 1.158327 -3.024792 1.397499
C 0.112485 -1.440276 0.363594
N 0.114163 -2.637822 0.611352
H -1.718760 -1.602584 -0.871213
H -0.172232 3.182692 0.347002
H 1.092547 -3.912025 1.422411
H 0.738225 2.977630 -1.156374
H -1.014138 2.943290 -1.203014