18
H9 C7 N1 O1
N -1.632990 -1.740537 -1.508098
C -1.986911 0.498654 0.548339
O -2.858499 1.133833 0.274904
C 1.437478 1.312261 1.094234
C 2.484542 1.806981 1.841815
C -0.725389 0.245243 -0.308704
C -0.309473 -1.546378 -2.100020
C 0.441401 0.780915 0.487769
C -0.515113 -1.226939 -0.694783
H 2.184180 2.676617 2.413484
H -0.236281 -0.807708 -2.819526
H -2.044477 -0.197936 1.475418
H -0.087827 -1.793112 0.099169
H 3.364596 2.030310 1.243309
H -1.728375 -2.658588 -1.132902
H 0.282924 -2.462614 -2.331497
H -0.893451 0.867068 -1.197869
H 2.823678 1.081921 2.614969