17
H9 C5 N1 O2
C -0.520498 0.760078 -0.053636
C 0.814155 -1.094505 0.725742
C 0.900050 1.145015 0.114954
O 1.547307 0.006338 0.869868
C -1.204148 1.348595 -1.346749
N 1.169489 -2.200317 1.203885
C -0.481471 -0.813844 -0.044022
O -1.471035 -1.488162 0.460951
H -0.633268 1.077991 -2.178583
H -1.234804 2.461689 -1.254331
H 1.031410 2.035566 0.709645
H -1.110192 1.019238 0.806533
H 1.396887 1.223151 -0.816257
H -2.243240 0.972965 -1.393571
H -0.323424 -1.221452 -1.115958
H 0.425841 -2.874681 1.419227
H 1.936936 -2.357690 1.892308