14
H5 C5 N3 O1
N -0.981537 -2.289133 -0.314900
C 0.650210 1.751672 -0.046041
C 0.233151 -0.383989 0.545239
O -1.142604 1.460174 -2.293235
C -0.261588 -1.683312 0.583362
C -0.924233 0.503694 -1.454456
N -0.084536 0.576470 -0.410039
N 1.083045 0.087476 1.465771
C 1.354282 1.320397 1.086778
H 0.069905 -2.271216 1.399119
H 2.039567 1.960453 1.768710
H -1.381156 -0.480320 -1.576871
H 0.633066 2.614428 -0.615850
H -1.287588 -3.166802 -0.137619