15
H6 C4 N2 O3
O 0.402338 3.487771 0.303714
C -0.415564 -0.501479 0.250976
C 0.072878 -1.769315 -0.508231
O -0.866612 0.360190 -0.832421
C -0.641187 1.719771 -0.734290
N 0.798561 1.277263 1.004476
O 0.086609 -2.791140 0.483693
C 0.155151 2.256887 0.222636
N 0.640639 0.026656 1.072015
H -1.197440 -0.776513 0.826038
H 1.006078 -1.592924 -0.964572
H -1.281219 2.264939 -1.450883
H 1.565059 1.626451 1.616330
H -0.651592 -1.947970 -1.316939
H 0.326318 -3.640584 0.027460