15
H6 C6 O3
C 0.887067 -0.789400 -0.635013
C 0.160257 1.260706 0.247127
C 0.041065 0.304466 -0.962827
C -1.462205 -1.767330 0.270069
O 1.964830 2.663186 -0.368919
C -0.420451 -0.703476 0.091735
O 1.781950 -1.512316 -0.933656
C 1.450376 1.981112 0.473025
O -0.119620 0.186551 1.181796
H -2.414989 -1.335793 0.391476
H -1.181686 -2.382198 1.125216
H 1.809954 1.950132 1.501581
H -1.484702 -2.425055 -0.608159
H -0.647419 2.046399 0.181076
H -0.364436 0.523017 -1.954526