17
H8 C5 N2 O2
C 0.135890 -0.047665 0.136133
C -2.163000 -0.394536 0.403202
N 2.057868 -0.685575 -0.181650
C 1.455228 0.453898 0.628902
N 1.397672 1.082498 -1.463643
C 0.611822 1.367140 -0.335424
O -3.105380 -0.964195 1.238220
C 0.921669 -0.404092 -1.128337
O -0.852039 -0.500238 0.907893
H 1.856024 -1.577621 0.305071
H 2.421315 1.087919 -1.456964
H -2.214361 -0.958398 -0.579934
H -0.073195 2.074542 -0.279608
H -2.307584 0.704147 0.123515
H 1.802895 0.767826 1.610136
H -2.526104 -0.963484 2.039230
H 0.581261 -1.042158 -1.966723