23
H14 C8 O1
C -0.094835 -1.137170 -0.301784
C 0.266705 1.287398 -0.173173
C -1.457661 -1.413105 0.167472
C -0.294991 2.491349 0.285161
O 0.497151 0.013196 1.807525
C 1.103445 2.533713 -0.240524
C 0.738060 -0.043238 0.369927
C -0.903937 1.778060 -0.905371
C 0.827257 -2.520759 -0.225144
H 1.789557 -0.092412 0.225391
H 1.942250 2.476911 0.472080
H -0.804674 2.088896 -1.882804
H -1.955672 -0.478268 0.467267
H -0.008049 -0.923734 -1.370798
H -1.481585 -2.017334 1.114405
H 0.408113 -3.326238 -0.904965
H -1.886885 1.304812 -0.737833
H 1.842608 -2.393253 -0.504253
H -2.097060 -1.892754 -0.552211
H 0.341866 -0.912526 2.128520
H 1.248283 3.098326 -1.070080
H 0.784595 -2.937007 0.782471
H -0.804579 3.015144 1.048704