20
H11 C8 N1
C 2.008424 -1.336490 -0.165390
N -0.194034 0.428640 2.044174
C 3.068724 -1.776637 -0.607179
C -0.253877 -0.310016 -1.779320
C 0.867794 -0.854303 0.547984
C -0.755943 0.541300 0.607482
C -0.481470 -0.696548 -0.281291
C -1.957833 1.453739 0.441021
C 0.660183 0.692670 0.954101
H -0.454734 1.297380 2.543370
H -1.978984 1.740529 -0.581663
H -1.808401 2.357196 1.008626
H 0.556207 0.434008 -1.866768
H 0.588251 -1.576958 1.331425
H -1.179510 0.030547 -2.211846
H 1.305286 1.500965 0.721405
H -1.179327 -1.502485 -0.225427
H -2.855781 0.971793 0.754896
H 0.050430 -1.211284 -2.317176
H 3.994625 -2.184067 -0.918442