25
H16 C9
C 2.000969 -1.099044 -1.684616
C -2.259237 1.028037 1.475034
C 0.610078 0.296231 0.070403
C 3.016631 -0.251903 -1.010715
C -1.967082 -0.018211 0.543632
C -3.323061 0.656613 0.390528
C 0.861724 -0.545402 1.281198
C 1.589264 0.157932 -1.137997
C -0.827284 0.157678 -0.507743
H 0.721298 1.369536 0.446227
H 3.384618 -0.560224 0.003604
H -1.678566 1.935279 1.352570
H 0.164728 -0.451869 2.089129
H 1.712967 -2.006350 -1.160124
H 1.354630 0.956187 -1.866877
H -4.152119 0.106502 0.705459
H 1.891905 -0.380784 1.720641
H 2.082932 -1.250787 -2.747744
H -0.889930 -0.813549 -1.199845
H -3.334667 1.315632 -0.442353
H 3.762147 0.280832 -1.537416
H -1.110041 0.953243 -1.200300
H 0.804533 -1.590350 0.995521
H -2.443555 0.817562 2.456425
H -1.972886 -1.062777 0.965379