21
H12 C6 N2 O1
C 1.130576 1.754465 2.582561
C 0.003918 -0.617656 -0.192997
N -1.149563 -0.182043 -1.032225
C -1.026938 -0.808266 -2.383990
C 1.242976 0.133506 0.144769
O 0.089261 0.950091 1.913911
N 2.532336 0.113342 -0.324838
C -2.365044 -0.629241 -0.296969
C 0.427877 0.321848 0.951276
H -2.233237 -0.706535 0.747201
H -3.111214 0.085918 -0.571380
H 3.164186 0.259914 0.403244
H 0.221552 -1.634892 -0.347401
H 1.184252 2.719220 2.158286
H -2.006825 -0.370608 -2.884096
H 0.841621 1.796286 3.628221
H -0.160238 -0.448027 -2.889348
H -2.665633 -1.657068 -0.669898
H 2.251291 1.280095 2.586016
H 2.672887 -0.528902 -1.068546
H -1.044024 -1.831457 -2.453779