14
H7 C4 N1 O2
C 1.433544 -0.855500 -0.313364
C 1.263542 1.495415 -0.163131
C -1.566621 -0.634349 0.771624
O 2.363506 -1.047745 -1.078258
C -0.810366 0.066860 -0.403422
N 0.650076 0.232864 -0.294775
O 0.656711 2.570446 0.053794
H -1.109848 -1.550725 1.020007
H 1.115048 -1.577890 0.512463
H -1.518023 0.103121 1.638153
H -1.269177 1.052222 -0.642118
H -2.599824 -0.758691 0.525817
H -0.957518 -0.564352 -1.344831
H 2.348937 1.468293 -0.281953