13
H4 C5 N4
N -1.280747 -0.475332 1.489642
C -0.991493 -0.324165 -1.012301
N 0.720527 0.326018 2.186096
N -0.405478 -0.174648 2.474689
C -0.596914 -0.139346 0.358789
C 1.240560 0.363686 -1.371045
C 0.696230 0.311677 0.834787
C 1.410007 0.454009 -0.109716
N -0.038495 -0.005287 -1.893598
H -0.680462 -0.369395 3.419112
H -1.904944 -0.699696 -1.348357
H 2.027694 0.723921 -2.079673
H -0.196469 0.008579 -2.948436