19
H10 C7 N2
C -1.794465 0.248032 1.038843
C 1.284523 0.724715 -2.329447
C 1.755080 0.490821 0.412001
C -0.259540 -1.121197 2.176499
C -1.489595 -1.229133 1.238665
C -0.364576 -0.251457 0.915695
N 0.559904 -0.012856 -0.035503
C 0.162493 0.341189 -1.392153
N 2.753457 0.858079 0.810081
H 0.900624 0.858370 -3.333985
H -2.132166 0.792888 1.894965
H -0.474891 -0.576359 3.140214
H 0.428870 -1.930238 2.116460
H 1.814740 1.674142 -1.993713
H -0.373604 -0.528143 -1.820875
H -2.003623 -2.046632 0.835107
H -2.292039 0.579212 0.099349
H -0.556026 1.213520 -1.408880
H 2.080858 -0.084972 -2.363309