12
H3 C6 N1 O2
O -2.051572 -0.508254 -1.349155
C -0.313484 1.560654 2.440816
C -0.537026 0.908375 1.265799
C 1.090220 -1.009982 -1.307774
O 0.698162 0.270768 0.724813
N -1.630486 0.627068 0.633056
C 0.171666 -0.348854 -0.422312
C -1.239626 -0.130345 -0.477185
C -0.206406 2.125355 3.328713
H 0.470887 -1.337551 -2.207822
H 1.665927 -1.843567 -0.839482
H 1.881751 -0.313680 -1.789450