17
H8 C8 O1
C -1.210124 2.956957 -1.456504
C 1.503680 -1.062962 -0.293111
C -1.129259 -1.334882 2.435232
C -0.315276 -0.039003 0.327478
C 0.492944 0.021520 -0.592923
C -0.199261 -1.001276 1.233382
C -0.456059 2.103050 -1.584491
C 0.378797 0.923040 -1.813973
O 0.956361 -1.634047 0.901802
H -1.824394 3.928379 -1.362270
H -1.658007 -2.204520 2.188851
H -0.479215 -1.401234 3.311784
H 1.597233 -1.830700 -1.057848
H 2.512485 -0.602734 -0.085149
H -1.756745 -0.509421 2.546092
H 0.156215 0.341539 -2.689815
H 1.430613 1.346293 -2.008509