16
H7 C6 N1 O2
O -0.348627 1.366793 -1.588210
C 1.686297 0.663742 -0.418271
C -0.604016 -0.823486 1.146544
C 1.705216 0.243011 1.010678
C 0.805492 -0.496581 1.183926
C 0.109237 0.260841 -0.703067
N -1.283404 0.325797 1.180022
C -1.305279 -0.741684 -0.392747
O 1.206729 -0.415965 -1.272306
H 2.397215 0.835090 1.605451
H 2.306410 1.430559 -0.926213
H -2.206448 -0.342135 -0.714670
H -0.132598 0.986439 -2.493434
H -1.187826 -1.726694 -0.816932
H -0.885823 -1.720242 1.696182
H -2.262589 0.154489 1.503066