15
H6 C4 N4 O1
C -1.611508 1.461748 -0.918626
N -0.484771 2.195550 -0.959609
C 1.991701 0.027480 0.113001
O -1.284472 -2.452454 -0.054392
N -1.758786 0.273571 -0.376564
C 0.536338 0.404459 -0.112697
N -0.612826 -0.326334 0.048015
C -0.844822 -1.562613 0.769595
N 0.601639 1.579082 -0.494121
H 2.249787 -0.886227 -0.457017
H -1.493119 -1.434582 1.611831
H 0.260021 -1.856375 1.150232
H 2.722086 0.806638 -0.211835
H 2.202089 -0.109778 1.185175
H -2.473334 1.879825 -1.292982