19
H10 C7 O2
O -0.160983 -0.015282 -1.869067
C 1.165867 -0.467781 -1.408126
C -0.868144 -0.359643 1.792281
C -0.244494 -0.047381 0.411967
O -1.915334 1.203165 -0.993343
C 1.773230 0.099953 -0.158539
C 0.777399 -1.081933 -0.111804
C 0.762380 1.153778 0.403652
C -1.162178 0.012051 -0.760616
H 0.885323 -2.113048 0.080600
H -1.636555 0.411228 2.048856
H 0.534899 1.853277 -0.393209
H -1.282912 -1.326383 1.893193
H 1.747780 -0.904559 -2.247058
H -2.232143 1.162396 -1.885888
H 2.833616 -0.038383 0.025992
H -0.065743 -0.224364 2.579201
H 0.979187 1.575658 1.350208
H -1.891214 -0.892752 -0.758315