15
H6 C7 O2
O -1.015663 1.238976 0.177661
C 0.287454 -0.318359 1.504468
C -0.154400 -0.549818 -1.154729
C 1.302530 0.687857 1.810922
O 2.312464 -1.199849 0.415901
C 1.426756 -0.302621 0.712410
C -0.128807 0.049666 0.099297
C -1.038612 -0.272809 -2.136479
C -1.888990 -0.096313 -3.033766
H 0.628855 -1.192386 -1.432711
H -0.300791 -0.986651 2.171998
H -1.855084 0.807736 0.456078
H 1.041861 1.683573 1.604172
H 1.970962 0.492932 2.672449
H -2.588516 -0.041891 -3.867656