22
H13 C8 N1
C 1.225099 0.327971 -0.580916
N -0.043953 -1.504052 -0.034656
C 0.486695 -0.787688 -1.249671
C -2.260782 0.694752 -0.093533
C 0.224731 1.496709 -0.413358
C -0.199638 -0.345307 1.005051
C -0.946216 0.923983 0.570331
C 1.217978 -1.787371 0.613418
C 1.315665 -0.283492 0.788998
H -0.390873 -0.475137 -1.935501
H 1.947559 0.220226 1.533461
H -0.194712 1.903870 -1.349504
H 1.094594 -1.471955 -1.825177
H 0.709959 2.383619 0.015670
H -2.985567 0.243927 0.702812
H -0.972069 1.565537 1.377276
H -0.568744 -0.778351 1.849074
H 1.105707 -2.401823 1.517889
H 1.993886 -2.241324 -0.035552
H -2.265035 -0.000927 -0.892579
H -2.677830 1.710506 -0.459392
H 2.183485 0.606339 -1.104141