21
H12 C8 O1
C 1.540413 2.229789 0.075686
C -0.405128 -1.536726 -0.131168
C -0.634548 0.666064 -0.343249
O -0.246652 0.976511 1.981503
C 0.623198 0.240622 1.308890
C 0.284452 -0.297803 -0.877547
C 1.287305 0.705141 0.009037
C -1.612156 -2.090142 -0.823084
C -0.872197 -0.169029 0.864730
H 2.237327 0.214295 -0.106656
H 0.702780 2.784011 0.440103
H -1.352641 1.353626 -0.943784
H -1.763618 -0.359801 1.333732
H 2.437807 2.442421 0.682091
H -2.158706 -1.452758 -1.487035
H 0.595691 -0.377429 -1.975154
H -2.408201 -2.439340 -0.023119
H -1.409440 -2.994870 -1.348753
H 0.194026 -2.122734 0.340886
H 1.239435 -0.400606 1.972026
H 1.720829 2.628767 -0.949134