19
H10 C6 N2 O1
N 0.233651 0.196508 -0.206543
C 1.003592 1.253784 2.091896
C 0.097166 -1.068222 -0.893050
C -1.686779 -0.575987 -1.363233
C 1.098481 0.278306 1.000985
O -1.047823 -1.680535 -2.265991
N 1.552934 0.810714 -0.254822
C -1.097813 -1.797049 -0.713837
C -1.065803 0.641608 -0.607999
H 0.988380 -1.592345 -1.372128
H 0.658100 2.216826 1.741710
H -2.728565 -0.511460 -1.685428
H 0.269557 0.797480 2.846420
H 1.579677 -0.634312 1.344828
H -1.487060 -2.649322 -0.265928
H -0.868952 1.444585 -1.336970
H 1.986137 1.379956 2.520178
H 2.138397 0.358894 -0.846124
H -1.623276 1.130586 0.266028