18
H9 C4 N5
C -0.296380 0.059038 -0.754372
N 1.060388 -0.180053 1.388667
C 2.190018 -0.466231 -0.537248
N 2.316848 -0.544264 1.557853
N -0.607916 -0.927044 -1.765889
C -2.043644 1.275429 0.524640
N -1.354987 0.044899 0.278128
C 0.934782 -0.119486 -0.013711
N 3.061684 -0.684775 0.466871
H -1.278342 2.060649 0.786007
H -1.337904 -0.464386 1.119376
H -1.570913 -0.752773 -2.154268
H -0.724806 -1.882436 -1.351103
H -0.169060 0.934352 -1.322483
H -2.813592 1.226419 1.312996
H 2.534845 -0.523426 -1.566486
H -2.574213 1.717438 -0.428486
H 2.673192 -0.773349 2.459471