16
H7 C7 N1 O1
O 0.952563 -0.462150 2.333901
C -0.854009 -1.565744 -0.518295
C -0.928755 -0.464080 0.626130
C 0.481130 -0.179494 1.074167
C 1.288097 0.164157 0.063743
C -0.899252 -0.138087 -0.838758
C 0.416207 0.657376 -1.037844
C 0.252629 2.144140 -0.788565
N 0.180614 3.213599 -0.451748
H 1.300154 0.374980 2.641766
H -1.832485 -0.351915 1.243254
H 0.752589 0.560775 -2.053612
H 0.056539 -2.179387 -0.428614
H -1.732965 -2.108131 -0.537444
H 2.303512 0.150404 0.143705
H -1.736528 0.183582 -1.471829