15
H7 C5 N1 O2
C -0.612416 -0.458880 1.237189
C -0.879674 0.191910 -0.182892
C 0.836712 -0.899354 1.320719
O 1.169186 1.357595 -0.611870
C -0.212306 1.330962 -0.904211
O 1.483916 -1.165522 2.284245
C -0.503029 -1.291586 -0.166221
N 0.880746 -1.408201 0.032383
H -1.300430 -0.434550 1.987603
H 1.746645 -1.085159 -0.542398
H -1.104177 -2.080504 -0.486895
H 1.561710 2.095795 -1.033254
H -1.981632 0.347611 -0.264573
H -0.421913 1.189935 -2.010021
H -0.663340 2.309957 -0.659785