19
H10 C6 O3
C 0.526669 -0.483835 1.628444
C -0.168449 -0.121717 -0.755817
O 0.783302 0.137338 -1.757350
C -1.346264 -0.969299 -1.283443
C -0.067287 0.479676 0.621036
C -0.020434 -1.390936 -1.771172
O 0.361268 -2.246146 -2.430475
C 0.691777 1.807895 0.529772
O -1.416801 0.792534 0.994915
H -1.839595 -1.521290 -0.528508
H 1.678992 1.671456 0.182992
H 0.212318 2.542229 -0.193292
H 0.368295 -1.524847 1.363024
H 0.661108 2.274622 1.567533
H 0.160651 -0.310917 2.654474
H -1.816441 0.040725 1.453908
H 1.664949 -0.367835 1.711154
H -2.051025 -0.480746 -1.949140
H 1.616964 -0.328918 -2.038082