23
H14 C9
C 0.777514 -2.000085 -1.704986
C -0.849641 -0.715060 -0.086238
C 1.240404 -0.310465 0.976960
C 1.521920 0.984075 0.325242
C -1.896040 1.261634 1.058723
C 0.243182 -1.209148 0.896471
C -1.098787 0.714801 -0.157898
C 0.266784 1.428651 -0.465784
C 0.414740 -1.352047 -0.439164
H -3.038349 0.971065 0.941170
H 0.166413 2.533380 -0.281165
H -1.864080 2.291630 1.213279
H 2.455672 0.969969 -0.237922
H 0.499323 1.322901 -1.535377
H -1.780238 -1.385238 -0.180674
H -1.761023 1.034271 -1.065629
H 0.579480 -3.129387 -1.465824
H 1.818028 -1.845935 -1.982743
H 0.016792 -1.944272 1.653034
H 1.941797 -0.437451 1.887974
H 1.723489 1.747161 1.113316
H 0.181254 -1.720512 -2.545224
H -1.558625 0.790060 2.082458