16
H7 C6 N1 O2
C -1.784230 1.297311 1.177657
C 1.005566 -0.591179 -0.342266
O -0.717718 -1.600494 0.425464
C -0.166738 -1.537062 -0.907548
C 1.253583 0.852882 -0.773916
O -0.032655 1.476477 -0.497153
C -0.590483 0.842193 0.561263
C 0.065748 -0.539845 0.912078
N -1.763077 0.642673 2.157240
H 1.337339 0.962684 -1.853187
H 0.094311 -2.509099 -1.294759
H 2.049698 1.343290 -0.288748
H -2.331121 2.115276 0.809057
H 1.928886 -1.213565 -0.359426
H -0.828718 -0.938279 -1.612429
H 0.479596 -0.603252 1.886638