19
H10 C7 O2
C -0.171566 -0.882306 -1.057492
O 1.639185 -0.488340 0.565135
C 0.429728 -1.020320 0.704646
C -0.832575 -0.266041 1.178204
C 0.912249 0.242386 -0.568322
C -0.568816 1.159010 0.951708
C 0.453138 1.577622 0.104829
O 1.886918 0.538095 -1.512465
C -1.418708 -0.982351 -0.129047
H -1.283917 -0.454364 2.159159
H -0.599916 -0.183696 -1.994881
H -1.749378 -1.963076 0.128734
H -2.287484 -0.403586 -0.451968
H 0.224965 -1.689871 -1.470718
H -1.303175 1.912023 1.323896
H 1.286898 2.055737 0.593281
H 0.148627 2.243009 -0.660770
H 2.728846 0.711813 -1.024007
H 0.505001 -2.105793 1.160071