17
H8 C7 O2
O -0.037523 1.701559 -0.334153
C -0.827772 -0.575562 -0.021153
C 0.678505 -0.456834 0.427775
C 2.213546 0.829818 -0.975847
O 1.216448 -1.275290 0.977644
C -1.718258 -1.436272 0.827742
C 3.131255 0.635798 -1.834597
C 1.145110 0.958512 0.056001
C -1.209348 0.980504 0.050757
H 3.936743 0.555926 -2.576733
H -2.748461 -1.461885 0.535874
H 1.541955 1.516672 0.851344
H -1.668548 -1.137582 1.904224
H -0.854090 -0.868877 -1.076266
H -1.945591 1.296307 -0.659392
H -1.499756 1.226130 1.073006
H -1.354223 -2.488928 0.773811