18
H9 C6 N3
C -0.568814 -1.862991 -1.510427
N 0.086358 -0.383196 -0.064397
C -0.942421 -0.604530 -1.830531
C 0.003065 -1.774308 -0.284712
N -0.469996 0.347390 -1.027771
C -0.010399 2.828127 0.486475
C 0.558203 0.411821 1.095894
N 0.593787 -2.652732 0.527711
C 0.742562 1.729437 1.119372
H 1.617488 2.095130 1.618791
H -0.737184 -2.783898 -2.022753
H 0.146937 3.754891 1.053510
H -1.473156 -0.310277 -2.801080
H -1.110899 2.558572 0.516721
H 0.316438 3.026835 -0.538541
H 0.319257 -3.588784 0.179118
H 0.233082 -2.693319 1.540374
H 0.695700 -0.098163 1.942235