20
H11 C7 N1 O1
C 0.996424 -0.441619 -1.492280
C -2.216764 -0.904190 0.372668
C 0.361792 0.795026 1.421272
C 0.118913 0.958991 -1.322075
C 0.927455 1.146052 0.038215
N -0.984327 -0.812001 1.040822
C 0.484583 -0.693782 1.055655
O -1.019184 0.704222 1.516877
C 1.508399 -0.201436 -0.130992
H 0.883123 -1.470585 1.585523
H 1.596506 2.122385 -0.001504
H 2.585461 -0.431493 0.084957
H 0.302538 1.647156 -2.107689
H -2.488503 -0.003493 -0.112272
H 0.473743 -1.361921 -1.703397
H 1.747601 -0.287399 -2.320316
H -3.048439 -1.056169 1.246316
H -0.951772 0.880221 -1.165010
H -2.223117 -1.714021 -0.281460
H 0.945564 1.124047 2.274711