21
H12 C8 O1
C -0.541188 0.307498 1.966802
C -0.995521 0.241377 -0.196420
C 2.567898 -0.171912 -0.707549
C -0.713538 -0.885089 1.008299
C 0.102672 -0.709666 -0.041890
O 0.282920 -1.681270 -1.157075
C -1.028711 1.311787 0.911062
C 1.442337 -1.158257 -0.390463
C -1.684020 0.408233 -1.534844
H 2.094194 0.828756 -1.054903
H -1.360411 1.363739 -1.969220
H 1.914726 -2.099084 0.066544
H -1.405728 -0.417852 -2.221904
H -2.810929 0.470604 -1.344881
H 3.102674 -0.504438 -1.618754
H -1.096010 0.285793 2.923683
H -1.231928 -1.891881 1.234025
H -1.988181 1.631925 1.037159
H 3.229629 -0.048885 0.101123
H -0.459866 2.187412 0.706973
H 0.578976 0.531209 2.282293