12
H6 C6
C -1.448736 -2.018039 -0.515510
C 2.482793 0.026953 -0.530543
C -0.686050 1.301030 0.293700
C 0.030825 -0.070880 0.475455
C -0.768555 -1.157857 -0.068739
C 1.386107 -0.036030 -0.081893
H 3.471334 0.086087 -0.956615
H -0.107444 2.087166 0.791282
H -1.687527 1.273033 0.721195
H 0.125092 -0.236034 1.571431
H -2.035121 -2.800046 -0.938160
H -0.762735 1.544597 -0.761567