16
H10 C6
C 0.294767 1.139510 -0.322177
C -0.222500 -1.014213 0.485335
C 1.350865 0.862982 0.721072
C 1.205222 -0.661438 0.966632
C -0.561514 0.123585 -0.460903
C -1.737230 0.036952 -1.389817
H 1.380737 -0.928734 2.022532
H -1.835813 0.967141 -1.971002
H 1.926606 -1.202519 0.366229
H -0.947774 -1.047729 1.312619
H 1.155715 1.442800 1.636660
H -0.274860 -2.000600 -0.000215
H -1.635231 -0.803333 -2.068163
H -2.678279 -0.104024 -0.823744
H 2.355546 1.128106 0.396884
H 0.223719 2.061534 -0.871936