16
H10 C6
C 0.735745 0.303006 1.270219
C -1.535173 0.066239 0.258488
C 0.497516 -0.636267 -1.050992
C 1.282570 0.327348 -0.163419
C -0.979831 -0.245063 -1.096054
C -0.762801 0.336569 1.300188
H -2.620205 0.117076 0.367498
H -1.232759 0.561298 2.255223
H -1.117221 0.613531 -1.759290
H -1.553623 -1.067469 -1.554921
H 0.904548 -0.647174 -2.061226
H 1.210830 1.339612 -0.563177
H 0.597760 -1.661604 -0.663348
H 1.153761 1.145341 1.831364
H 2.335232 0.054197 -0.168283
H 1.083649 -0.606653 1.797727