12
H6 C6
C 0.136733 0.374169 -0.276563
C 2.222494 -1.328684 -2.991412
C 1.567314 -0.776123 -2.100522
C 0.804467 -0.152794 -1.122770
C -0.627795 1.012332 0.778882
C -1.252375 0.023888 1.762993
H -1.446005 1.581744 0.299798
H -0.004028 1.751414 1.306625
H -0.459255 -0.532605 2.280026
H -1.820673 0.542592 2.533330
H -1.917561 -0.686589 1.253447
H 2.796688 -1.809315 -3.723856