19
H10 C7 O2
C -0.564898 1.842167 -1.674126
C -0.457438 0.806215 0.841109
C 1.065517 0.582612 0.436313
C -0.283105 -1.100224 0.552554
C 0.265385 -2.472790 1.141765
O 1.086908 -1.124035 -1.445620
C -0.905399 0.809293 -0.550979
C 0.415316 -0.434889 -0.572541
O -1.077977 -0.423355 1.241333
H -1.085130 1.498045 -2.561543
H -1.925040 0.495909 -0.695302
H -0.640798 1.635440 1.491109
H 0.128458 -3.230241 0.451607
H -0.295737 -2.668733 2.044408
H 1.320518 -2.365599 1.378216
H 1.688611 1.371091 -0.037163
H -0.979327 2.834458 -1.401451
H 1.765204 0.125518 1.217511
H 0.478948 1.819118 -1.857183