16
H7 C6 N1 O2
O -1.778426 1.879580 -0.121686
C -0.047260 0.628624 -0.639428
C -0.975010 -0.994669 1.396586
C 0.234052 -1.262354 0.918130
C -1.225247 0.951994 0.015191
C 0.322004 -0.777552 -0.599245
N 1.178956 -1.719047 1.663667
C 0.771849 1.571999 -1.419547
O -1.805532 -0.041171 0.766567
H -1.430616 -1.454877 2.273098
H 1.335067 -1.017224 -0.887111
H 1.557157 1.162896 -2.000519
H 0.864046 -1.868303 2.569951
H 0.043623 2.139015 -2.006474
H 1.253626 2.263022 -0.690802
H -0.298294 -1.461936 -1.238389