18
H9 C6 N3
C -0.931924 -0.736605 0.464421
C -0.752915 2.238152 -0.213392
C 1.444274 -1.339033 0.352040
N 1.751684 0.016982 0.964500
C 0.840438 0.867492 0.730968
C -0.286624 0.502337 -0.052240
N -0.872623 1.120306 -1.170089
C 0.209536 -1.085001 -0.435405
N 0.123848 -1.545085 -1.697246
H -0.083037 3.033858 -0.558166
H -1.890742 -1.135975 0.086838
H 0.129473 -2.663586 -1.665141
H 0.975748 1.773103 1.408864
H -1.857820 0.893734 -1.251584
H -1.568709 2.529575 0.456576
H 2.384187 -1.604166 -0.143566
H -0.910905 -0.834215 1.575120
H 1.296091 -2.031835 1.147517