19
H10 C6 N2 O1
C 2.060020 -0.504386 -0.972626
C 0.955106 -1.414853 -0.544585
N -0.876740 0.425843 -0.953662
C 0.865586 -1.768171 0.975550
C -1.833268 1.968030 0.725521
N -0.168834 -0.720977 1.094038
C -0.977024 1.492876 -0.452719
C -0.438003 -0.746833 -0.381122
O 1.296246 -2.524168 1.766515
H 2.969146 -1.005475 -1.186232
H -0.618789 -0.263588 1.768762
H -1.443818 2.696044 1.298000
H 1.778550 0.122948 -1.878484
H -2.843112 2.397654 0.282803
H 0.924414 -2.301444 -1.083589
H -1.219188 -1.545360 -0.656730
H -2.186943 1.133049 1.266996
H -0.550855 2.320376 -0.926030
H 2.307525 0.238414 -0.142457