12
H3 C3 N3 O3
O 0.289879 2.168943 -0.392296
C 0.793815 -0.275745 0.491861
C -0.756668 1.254965 -0.586084
O -1.785114 1.589734 -1.028462
C -0.434077 -0.124061 -0.155172
O 1.083277 -1.505225 0.912795
N 1.705377 0.738437 0.749244
N -1.245802 -1.200276 -0.433616
N 1.540906 1.798493 0.219330
H -2.138014 -0.874197 -0.935716
H 2.005856 -1.488350 1.308023
H -1.059419 -2.082737 -0.149913