17
H10 C7
C -1.071110 -1.222098 0.589840
C 0.188014 0.437279 0.377170
C -0.404729 -1.497270 -0.692262
C -0.491381 -0.015663 -0.788387
C 0.852731 0.977835 -1.204992
C 1.062170 1.622164 0.168845
C -0.299103 -0.346023 1.574056
H 0.493813 2.600586 0.327162
H -1.037116 -2.078300 -1.350558
H -1.032917 0.133011 2.308378
H -1.485223 0.420802 -1.106627
H 0.543380 -2.039958 -0.628284
H 1.626838 0.265027 -1.602952
H 1.993005 1.594138 0.727214
H 0.491345 -0.781752 2.237136
H 0.568493 1.745457 -2.005388
H -1.998253 -1.815222 1.069638