17
H8 C7 N2
C 0.931513 0.164897 1.156655
C 0.288231 -1.445752 -1.237242
C -0.533356 -0.225305 1.481811
C -0.576412 1.469410 0.041532
C 0.746645 0.793127 -0.175228
N 0.401859 -0.006798 -1.530560
C -1.182174 0.106784 0.091930
C -0.915665 -0.637913 -1.175382
N -1.488165 1.029096 1.078938
H -0.909486 -0.667280 2.348968
H 0.713105 -1.891871 -0.321381
H 1.634838 1.423624 -0.533854
H -1.663277 -0.668661 -1.922123
H 1.660729 -0.670035 1.196385
H 1.267603 0.876318 1.934988
H -0.832528 2.430477 -0.376368
H 0.456556 -2.080112 -2.059063