19
H10 C7 N2
N 1.659772 -0.289411 -0.597229
C 0.957688 0.077374 -2.300006
C -0.756628 -0.864030 0.336560
C -0.919273 0.185196 1.450806
C 0.076598 1.142525 1.163772
C 0.266966 0.896087 -1.380208
C 0.327173 0.136601 -0.123782
C 1.452649 -1.160192 -1.723261
N -1.837061 0.270563 2.519388
H -1.639231 -1.003655 -0.229601
H -2.689947 0.504092 2.300902
H 0.014915 1.940095 -1.391792
H -0.306212 -1.825221 0.625915
H 0.692552 -2.001815 -1.537769
H -1.449682 -0.091387 3.387332
H -0.186734 2.135085 1.017635
H 2.323789 -1.597937 -2.134576
H 1.088702 0.367016 -3.350239
H 0.923959 1.179000 1.966134