16
H7 C5 N1 O3
C 0.501807 0.639313 0.162505
C 1.325503 0.679694 1.519034
O 1.145768 -1.640013 -0.287676
C -1.663616 0.564716 -2.408532
O 2.654437 0.941270 1.245835
C 0.175906 -0.865903 1.795815
N -0.476848 1.163871 -0.486780
C 0.787976 -0.650792 0.532643
O -1.112812 0.053844 -1.214807
H 1.592921 -2.315422 0.230809
H -1.986865 -0.274480 -3.063421
H -0.761411 -0.393677 2.156875
H -2.543497 1.099743 -2.002596
H -1.088294 1.319853 -2.810332
H 0.441294 -1.670969 2.458933
H 1.007766 1.348956 2.171701