13
H5 C5 N1 O2
C 0.234145 1.203587 -0.336134
C -1.181328 -1.609062 0.488439
C -0.254960 0.093284 0.121144
O 2.498686 1.838672 -1.048346
C 0.305686 -1.224311 0.572512
N 0.000230 2.346899 -0.661525
C 1.428042 1.642091 -0.776400
O -1.601700 -0.247863 0.307811
H 0.693410 -1.262920 1.601795
H 1.008351 -1.716312 -0.093249
H -1.515519 -2.192535 -0.468547
H -1.699562 -2.034009 1.308343
H 0.084509 3.162455 -1.015818