20
H11 C6 N1 O2
C -0.510880 0.751602 -0.729597
C 1.458183 -0.095209 0.193032
O 2.464324 -0.431629 -0.307029
C -0.907113 -1.440973 -0.703761
C -1.574134 -0.201188 -0.298748
O 0.437924 -0.620235 2.048210
C 0.994553 0.581825 1.259596
C 0.167931 1.641842 0.435335
N 0.069165 -0.533972 -1.376638
H 1.858761 0.976284 1.849992
H -0.454215 -0.430706 2.153106
H -1.865462 -0.034039 0.774580
H -0.673936 1.465259 -1.591545
H -2.543276 0.008624 -0.827875
H -0.512890 -2.092343 0.092455
H 0.835969 2.367589 0.008420
H 0.666664 -0.677973 -1.959603
H -0.549493 2.157794 1.063929
H 2.107656 -1.325316 -0.598125
H -1.469744 -2.067244 -1.485709