27
H18 C8 O1
C 0.309816 0.410737 2.266929
C -2.188669 0.660159 0.344440
C 1.538962 -1.479932 -0.829292
C 0.092933 -0.488621 1.056676
C -1.361696 -0.611424 0.628306
C 0.469863 0.823705 -0.977495
C -0.336508 0.317510 -2.290364
C 1.080354 -0.248777 -0.023320
O 2.296780 0.060032 0.703433
H 0.367522 0.352771 -3.203318
H 2.309179 -1.236442 -1.505736
H -0.508132 0.452619 2.956106
H 1.170654 0.195093 2.769123
H -2.869408 0.645855 -0.459984
H -0.857732 -0.635048 -2.242489
H 1.774377 -2.216369 -0.148726
H 0.682117 -1.886997 -1.420275
H -1.931981 -1.203051 1.352876
H -1.583288 1.612512 0.327967
H -2.770269 0.897787 1.268963
H 2.724741 0.654491 0.361789
H 1.305401 1.586267 -0.548521
H -1.405872 -1.200879 -0.299650
H -1.175902 0.977145 -2.598220
H 0.403355 1.467831 1.893732
H 0.372418 -1.539119 1.447434
H 0.090961 1.632149 -0.830392