14
H5 C5 N3 O1
O -2.291194 0.284773 -0.642444
C 1.702799 -0.585145 -0.387920
N 1.241641 -1.297553 -1.380712
C -1.098131 0.114153 -0.488028
N -0.048537 -1.180279 -2.243990
C -0.673017 1.122184 1.874318
C -0.192589 -0.630558 -1.390384
C -0.122741 0.511780 0.613555
N 1.202483 0.236649 0.641851
H -1.725972 1.340384 1.771332
H 2.806858 -0.710066 -0.301412
H -0.422386 0.587246 2.747009
H -0.171254 2.114783 1.963952
H -0.207949 -1.908374 -2.777126