15
H6 C5 N2 O2
C 0.735118 -1.376934 -0.942012
O -1.758370 0.968402 0.436201
C -1.404197 -0.108634 1.117276
C 0.273761 2.269036 -0.920912
O 1.254181 -1.967970 0.157378
N 0.503498 3.317593 -1.267592
C -0.278837 0.723192 0.819118
C 0.301802 0.927599 -0.478471
N 0.807907 0.050143 -1.185783
H -1.543039 -1.030237 0.596555
H 1.603170 -1.385948 0.749422
H -1.720807 -0.197003 2.144406
H 1.369144 -1.680982 -1.840631
H 0.178551 1.296964 1.633118
H -0.321856 -1.805231 -1.018067