18
H10 C6 O2
O -1.204100 1.441374 0.947346
C -0.290722 -1.324399 0.479202
C -0.542257 0.872835 -0.136405
C -1.146669 2.110632 -0.247492
C -1.146602 -0.524595 -0.517016
O 2.196388 -1.329062 0.816373
C 1.153214 -0.893710 0.057206
C 0.977407 0.631458 0.038997
H -0.455700 -2.387801 0.355483
H 1.570351 1.083526 -0.811246
H -2.147651 2.181558 -0.777512
H 1.335178 -1.281872 -1.009883
H -0.831335 -0.671992 -1.618641
H 2.345413 -2.300237 0.781587
H -2.163749 -0.502879 -0.402438
H 1.403138 0.977834 0.899917
H -0.454901 -1.104204 1.477214
H -0.597369 3.021540 -0.332695