20
H11 C7 N1 O1
C -1.287156 -0.610852 1.542630
C 1.286989 1.346586 -0.273520
C 0.807738 -0.081284 -0.466869
C -0.364680 0.054224 -1.420323
C -0.822910 0.649364 0.898774
N 0.657865 0.682363 0.768434
C 1.546809 -1.406425 -0.262958
C -1.301241 0.940176 -0.600680
O -2.115489 1.691865 -0.945210
H 2.291943 -1.555159 -1.025552
H 0.727510 2.377305 -0.356759
H -0.994125 -1.507931 0.979184
H 0.826233 -2.254711 -0.355039
H -0.848307 -0.923929 -1.619047
H -1.158598 1.487362 1.467871
H 2.217946 1.514861 -0.670899
H -0.931328 -0.752692 2.541997
H -0.146956 0.494762 -2.430933
H -2.413794 -0.672892 1.539910
H 2.021536 -1.472991 0.689003