20
H11 C7 N1 O1
C -0.869877 0.003597 -0.668318
C -0.383433 -0.497807 0.652505
C 0.147947 1.825945 0.303141
N -1.476822 -0.887817 1.497172
C 0.371493 -0.412022 -1.516346
C 1.003952 -1.586283 -0.938451
C -0.026911 1.129401 -1.042959
O 0.501868 -1.709689 0.499971
C 0.579613 0.646417 1.170717
H -1.673615 -0.276676 2.270611
H 0.632829 -2.499334 -1.398243
H -1.484101 -1.858072 1.448358
H -0.752030 2.351254 0.827913
H 0.921893 2.598101 0.233157
H 1.657529 0.419998 0.942692
H 2.086088 -1.480678 -1.049724
H -0.211918 1.766402 -1.891335
H -1.953347 0.072949 -0.947862
H 0.504106 0.776124 2.258292
H 0.424754 -0.381801 -2.651271