24
H15 C7 N1 O1
C 0.109325 0.919741 0.911157
C 0.224242 -1.505387 0.236855
C -0.439702 2.344189 0.869944
C -0.424775 1.260742 -2.101225
C 0.139439 -0.055541 -2.463189
O -1.357504 -1.762372 0.617720
N -0.709592 0.124362 -1.313657
C 0.766471 -1.822887 1.708805
C -0.153179 -0.081004 -0.067499
H 0.091474 -1.564166 2.561888
H -1.369948 -2.602677 1.129036
H 1.634364 -1.184131 2.018426
H -1.560476 2.220791 0.866424
H -0.227340 -0.674316 -3.250299
H 0.081800 -2.224501 -0.557249
H -1.314416 1.661620 -2.820001
H -0.141327 2.869743 1.761399
H -0.205798 2.869841 -0.071684
H 0.253947 2.099129 -1.826852
H 1.280694 -0.101469 -2.321840
H 1.435996 -1.444539 -0.248293
H 1.271395 1.073820 0.839614
H 1.089833 -2.934561 1.785650
H -0.474915 0.513582 1.734919