18
H9 C6 N3
C 0.150209 1.766076 -1.053913
N -1.874828 0.357173 0.559702
C 0.372217 0.236273 -0.774552
C -2.088862 -0.868229 -0.272182
N 0.732817 0.008906 1.711395
C 1.433919 -0.039994 0.398153
C 1.326563 -1.282823 1.138626
N -0.695965 -0.012367 1.340811
C -0.758793 -0.375158 0.087241
H 2.404836 0.412563 0.265881
H 2.203193 -1.641256 1.773344
H 0.781950 -2.129530 0.766382
H -2.372138 -0.732062 -1.196416
H 1.104387 2.145118 -1.398214
H -2.507482 -1.653556 0.364920
H 0.614801 -0.275211 -1.668790
H -0.203736 2.239002 -0.202958
H -0.623105 1.845060 -1.839454