15
H6 C5 N2 O2
C 0.281356 1.503991 -1.558686
N -0.518118 0.949698 1.195211
N 0.510071 2.645217 -1.780747
C 1.356796 -0.488386 0.256412
C -1.009716 -1.326047 0.431018
C 0.036662 0.132024 -1.207546
O 1.263847 -0.557007 -1.172284
C -0.137901 -0.058984 0.390847
O -1.955912 -1.382050 1.165997
H -0.641620 -2.213342 -0.251800
H -0.757158 -0.232130 -1.816596
H 1.657175 -1.368279 0.769728
H 1.951044 0.392005 0.474227
H -0.633714 0.630579 2.151826
H -1.402814 1.372734 0.952410