10
H3 C5 N1 O1
N -3.298438 -0.283898 -1.514373
C -2.399879 -0.719410 -0.965679
C 0.685793 0.235198 0.291723
C -0.271084 -0.523973 0.080185
C -1.339537 -1.332418 -0.215561
C 1.730278 1.096770 0.476231
O -1.349994 -2.543624 0.084083
H 2.581705 0.921031 -0.190740
H 2.156789 0.991852 1.534740
H 1.504348 2.158447 0.419389