20
H11 C7 N1 O1
C -0.879744 -0.658088 -0.641185
C 1.228918 0.101791 -1.539195
O 0.220510 1.075778 2.463523
C 0.416789 -1.233408 -1.321539
C -0.960023 -0.911464 0.853644
C -0.200364 1.252850 0.840694
N -0.866455 0.743829 -0.897323
C 0.437601 1.201237 -0.562402
C 0.125562 0.001600 1.381651
H 1.072585 0.458273 -2.483992
H -1.791967 -1.090605 -1.145729
H -0.700589 -1.879827 1.234370
H 0.087348 -1.736458 -2.209556
H 1.126456 -0.274827 1.344624
H 0.763105 2.187882 -0.758476
H -0.626443 0.945769 3.041821
H 2.245868 0.112060 -1.221255
H 0.960111 -1.824310 -0.607510
H -1.917111 -0.686621 1.263471
H -0.742196 2.214524 0.964340