17
H8 C7 O2
C -0.787388 -0.915659 -0.978808
C 2.149430 2.590075 1.227306
C -2.595384 -2.468029 -0.168752
C 0.318653 0.097163 -0.662176
C 1.136052 0.838295 -0.358996
O -2.767023 -3.551925 0.162619
C -1.406054 -1.630574 0.230479
C 2.160102 1.841536 -0.072063
O 1.802623 3.247079 -0.016753
H 3.157754 1.681719 -0.548284
H -3.349738 -1.942235 -0.791814
H 3.070773 2.913029 1.648095
H -1.539191 -0.385793 -1.607499
H -1.718732 -0.836295 0.892354
H 1.370203 2.406192 1.914912
H -0.357341 -1.678914 -1.640120
H -0.644744 -2.205674 0.769481