19
H10 C7 O2
O -1.917648 0.496188 -0.334239
C -0.423534 -0.462674 1.390415
C 0.413469 0.281434 -0.535205
O 1.044425 -2.066805 0.104116
C -1.834226 -0.326500 0.854753
C -0.785669 1.217289 -0.544713
C 1.391341 0.293095 -1.667202
C 0.682084 0.460231 0.945576
C 0.452700 -0.916337 0.279765
H -0.325596 -0.847494 2.366465
H 1.017089 -0.193848 -2.561616
H 1.547062 -2.361373 0.905848
H -2.192474 -1.335076 0.519174
H -1.256048 1.409321 -1.494427
H 1.566137 1.357376 -1.989292
H 1.489530 0.923040 1.465216
H -0.761033 2.101737 0.064080
H 2.377461 -0.098071 -1.431638
H -2.485075 0.068472 1.662936