21
H12 C8 O1
C 0.743104 -0.922753 -0.623271
O -0.978942 1.245961 -2.096164
C -0.266945 0.040512 -0.192925
C 0.012512 0.803565 1.128930
C -1.242004 -2.082036 -0.093221
C 1.075246 1.910099 1.136204
C -1.562207 -0.795922 -0.306780
C 0.136661 0.660083 -1.399381
C 0.201393 -2.317076 -0.094645
H -2.498549 -0.322840 -0.429357
H 2.107509 1.473675 0.836723
H 1.219197 2.328408 2.135140
H 0.991925 1.016185 -1.744622
H 0.871764 2.640169 0.416268
H -1.967160 -2.892238 -0.002618
H 0.529178 -3.097252 -0.771257
H 0.625261 -2.579372 0.916945
H -0.939068 1.306322 1.449040
H 0.238160 0.124101 1.908297
H 1.784146 -0.738621 -0.570865
H -1.081210 2.199021 -1.602430