16
H7 C7 N1 O1
O -1.848956 2.511128 -0.240765
C -1.329010 1.535763 0.359845
C 0.146628 1.243868 0.351073
C 0.244854 -1.898105 1.923424
C 1.894694 -0.248295 -0.662725
C -0.441020 -0.687117 -1.310024
C 0.407733 -1.150312 0.976199
C 0.527697 -0.234118 -0.154469
N 2.967525 -0.226394 -1.051849
H 0.567817 1.396007 1.360590
H -1.990285 0.799690 0.871702
H 0.123819 -2.586929 2.698234
H -1.430632 -0.791994 -0.918028
H -0.100438 -1.635378 -1.666080
H 0.654031 1.908691 -0.383397
H -0.394436 0.063479 -2.153729