19
H10 C6 O3
C 0.069976 0.967561 0.450339
C -0.535574 -0.395838 -0.026504
O 0.018362 0.608932 1.848705
O 0.156660 -0.992815 -1.015496
C -0.161736 -2.359576 -1.189114
C -0.533646 2.277699 0.012713
C 1.354106 1.408739 -0.193130
C -0.301841 -0.774049 1.447420
O 0.384444 2.257510 -1.037680
H -1.278549 -2.497379 -1.425894
H -1.569636 2.311868 -0.152236
H 0.638756 -1.372250 1.596586
H -1.112526 -1.151024 1.940068
H 0.141863 -2.967738 -0.350183
H 2.067862 1.798744 0.586831
H -1.538930 -0.293877 -0.297936
H -0.174325 3.153497 0.685103
H 1.928513 0.729396 -0.824151
H 0.446222 -2.709429 -2.055448