15
H6 C5 N4
N 0.149906 0.439150 0.953708
C -0.549821 0.661109 -0.149561
N 0.828852 -0.658997 0.716283
C 1.734900 -1.240340 1.709660
N -1.080462 -0.716930 -3.401087
C -1.483485 1.785813 -0.390242
C -0.252260 -0.378193 -1.048801
C -0.671987 -0.579237 -2.391149
N 0.644069 -1.221380 -0.472510
H -1.570184 2.361645 0.502564
H 1.252730 -2.160563 2.086904
H 2.677083 -1.501236 1.217608
H 1.873927 -0.562966 2.531940
H -1.090464 2.402053 -1.200064
H -2.462789 1.370071 -0.665243