14
H6 C5 N2 O1
N -0.439914 0.586821 -2.728359
C -0.402545 1.601012 0.691844
O -0.024569 0.434228 1.347458
C 0.640706 -1.815630 1.290367
C -0.539198 1.669385 -0.564025
N 0.098255 -0.667520 -0.772108
C 0.203178 -0.621268 0.484144
C -0.329739 0.503705 -1.390319
H -0.200480 -0.394568 -3.090850
H -0.522047 2.376893 1.405077
H 0.781944 -2.612991 0.576120
H -0.051637 -2.056479 2.115528
H 1.608307 -1.617666 1.716161
H -0.822253 2.614095 -1.081050