17
H8 C7 O2
O -0.956399 1.886232 -1.203040
C -0.847826 -0.655059 0.177220
C 0.045797 1.670537 -0.466992
C -1.042979 -1.560686 1.332610
O 0.512872 0.746617 1.641563
C 2.360694 2.992811 -0.627866
C -0.048685 0.614220 0.578104
C 1.298763 2.385641 -0.573076
C -0.010734 -1.318496 -1.029794
H 0.138152 -0.680670 -1.900325
H -1.588533 -2.473910 1.023851
H -1.796707 -0.295499 -0.331808
H -1.632809 -1.015454 2.160674
H 0.919129 -1.635958 -0.631581
H 3.315617 3.434464 -0.625622
H -0.081416 -1.886177 1.789280
H -0.584955 -2.208601 -1.313215