19
H11 C5 N1 O2
C -0.616699 -0.428416 1.684046
N -0.068566 -0.738723 2.901965
C -0.121207 0.611589 -0.385661
O -1.752708 -0.785862 1.360677
C 0.637553 -0.259919 -1.384222
C 0.087292 -1.607403 -1.477880
C 0.153473 2.115354 -0.479040
O 0.273851 0.264857 0.929882
H -1.234881 0.482085 -0.510029
H -0.065931 2.469842 -1.497472
H 0.595224 0.261072 -2.349585
H 1.672978 -0.266736 -1.085801
H 1.193521 2.298290 -0.242770
H -0.961002 -1.637687 -1.837164
H -0.463433 2.730877 0.189750
H 0.603086 -0.129008 3.278697
H 0.640105 -2.243582 -2.198358
H -0.688900 -1.017148 3.630248
H 0.116248 -2.119501 -0.527292