18
H10 C6 N2
C -0.775832 1.019090 -0.868389
C -0.308243 0.943731 0.230734
C 1.040765 0.429355 0.320155
N 1.416739 -1.389601 1.774665
C -1.135530 0.678252 -2.123221
C 0.746311 -0.955775 0.573025
C -0.050875 -1.680465 1.618803
N -0.774610 2.156778 -1.734372
H -0.473855 0.159350 -2.774703
H 1.506660 1.140090 1.159720
H 1.721263 0.637178 -0.501657
H 1.960414 -2.240665 1.619006
H 0.753045 -1.495534 -0.388044
H -0.399569 -2.697213 1.394381
H -2.201492 0.485716 -2.346594
H -0.680915 -1.137009 2.239270
H -1.459095 2.759015 -1.322180
H -0.885194 1.187715 1.129413