19
H10 C7 O2
O 1.113134 1.623451 -1.789267
C 0.479901 1.032351 -1.097266
C -0.871979 0.189357 -1.262283
C 0.843388 -0.011929 -0.251351
C -1.023387 -1.117456 1.272383
C -0.595109 -0.038446 0.259067
C 1.986203 -0.931842 -0.333455
C -1.125816 0.880793 1.285224
O -1.353232 -0.111850 2.167962
H -1.746617 0.770464 -1.530622
H -0.393995 1.656296 1.699421
H -0.234351 -1.801437 1.594562
H -1.925198 -1.696757 0.900142
H 2.621466 -0.722069 -1.136229
H 1.583047 -1.922389 -0.451294
H -0.801682 -0.749865 -1.919819
H 0.978016 2.408701 -1.035039
H 2.523630 -0.895436 0.625039
H -2.057418 1.438074 1.002839