18
H9 C7 N1 O1
C -0.270911 1.071549 -0.455103
C 1.725118 -2.509052 0.132945
C -0.365019 -1.320835 -0.112339
O 0.192726 -0.057411 0.301007
C 0.398388 -2.377245 0.617302
C -1.572113 1.595323 0.232104
N 2.856744 -2.546571 -0.213687
C 0.759897 2.080470 -0.456039
C 1.605353 2.924339 -0.465411
H 2.360393 3.670957 -0.508166
H -2.330211 0.821987 0.192957
H -1.325872 1.783280 1.267522
H -1.435432 -1.300023 0.295215
H -1.965672 2.492749 -0.243110
H -0.420080 -1.430357 -1.170870
H -0.517499 0.772265 -1.470940
H -0.073568 -3.391858 0.408149
H 0.377794 -2.279574 1.648472