18
H9 C7 N1 O1
O 2.155648 1.135776 0.156641
C -0.158863 0.843929 0.767342
N -2.219387 -0.266408 1.231765
C -1.740968 1.022382 0.625682
C 0.366815 0.218997 -1.498582
C 0.909794 -1.244364 0.038830
C -1.196604 -0.127021 0.228099
C 0.987353 0.352764 -0.083068
C -0.418313 -0.851369 -0.742165
H 1.042455 -0.123109 -2.275398
H -1.807455 -0.583852 2.156976
H 1.606488 -1.712791 -0.633949
H -2.257547 1.819898 0.512209
H 0.817717 -1.658721 1.010456
H 2.979996 0.659091 -0.102702
H 0.135916 1.111750 1.750367
H -0.230016 1.082459 -1.812662
H -0.973026 -1.679428 -1.329865