12
H6 C4 N2
N -0.027030 -0.019091 -2.063727
C -0.518343 0.060642 1.579625
C 0.858885 0.165748 1.404299
C -1.061807 0.013245 0.252897
C -0.056457 -0.002418 -0.615234
N 1.104729 0.084295 0.013931
H 0.223089 -0.914191 -2.474548
H 1.628398 0.156242 2.147821
H -1.075059 0.022656 2.566200
H -2.136912 -0.111388 0.015719
H 1.980416 0.239788 -0.387064
H -0.919901 0.304486 -2.439926