20
H11 C7 N1 O1
C -0.002033 -0.293111 0.622334
C -1.394126 1.770493 1.606488
C -0.585536 -0.975437 -0.613429
C 0.322043 0.640589 -0.531596
C 0.530654 -0.538167 -1.528454
C 1.833530 -1.339331 -1.546172
C -1.366817 0.471871 0.868817
N -1.099368 0.462363 -0.610010
O 0.841216 -0.930698 1.574233
H 1.647317 -2.306710 -2.127663
H -1.287583 -1.790348 -0.696822
H 2.145208 -1.605485 -0.570896
H -2.289475 2.378352 1.315268
H -2.169823 -0.196524 1.036016
H -0.512513 2.375067 1.531920
H 1.257187 -0.251929 2.132630
H 2.660481 -0.836576 -2.059287
H 0.241769 -0.288542 -2.548794
H -1.514125 1.586442 2.660712
H 0.741972 1.667715 -0.515337