19
H10 C6 N2 O1
C 0.880609 1.819868 0.156249
C 0.464301 -1.431615 -1.183619
O 0.542465 -1.390459 -2.364979
C -1.597812 1.427801 -0.041994
C 0.091441 -0.419707 -0.176354
N 0.624746 -2.634641 -0.339112
N 0.108809 -1.031230 1.050529
C -0.173618 1.029865 -0.418726
C 0.415223 -2.325494 0.898760
H 1.861697 1.607389 -0.231172
H 0.924369 1.832299 1.230638
H 0.753955 2.947108 -0.118104
H 0.928375 -3.492951 -0.824830
H -1.815463 2.466663 -0.267001
H -0.173183 1.192483 -1.553102
H 0.446591 -3.045664 1.687742
H -2.357284 0.776213 -0.473472
H -1.744239 1.288706 1.072158
H -0.180996 -0.616671 1.896395