16
H7 C6 N1 O2
O -1.746527 -1.379267 0.763916
C -0.749750 0.176851 -0.898442
C -0.880790 -1.238051 -0.287261
C 0.847101 0.606900 -0.933489
C 0.304530 0.746553 1.144123
C 0.581333 1.757669 0.041035
N -0.786486 1.220279 0.221458
C 1.092776 -0.375530 0.289967
O 0.449261 -1.585634 0.218944
H -1.447605 -2.043677 1.288029
H -1.353556 0.484264 -1.720140
H 0.943063 2.797058 0.069498
H 2.227184 -0.507134 0.551704
H 0.210798 0.864759 2.204827
H 1.380796 0.437911 -1.798685
H -1.072124 -1.962947 -1.155520