19
H10 C8 O1
C 1.486622 0.442277 1.210147
C -0.180189 0.608223 -0.865481
C 0.021444 -0.372976 -1.974872
C 1.251959 0.345896 -0.824808
C -0.612944 -0.018625 0.513854
C 0.131578 0.711630 1.566046
C -2.102217 -0.443904 0.659334
O 0.139863 -1.305834 0.442317
C 1.486347 -0.720317 0.195638
H 2.107129 0.889552 -1.209475
H -2.649826 0.561269 0.735711
H 2.399879 0.890400 1.714703
H -0.268144 1.398964 2.257241
H 0.013100 0.102223 -2.978158
H 2.215977 -1.429257 0.271682
H -0.555278 1.617251 -1.058637
H -0.155446 -1.364763 -1.928527
H -2.269275 -1.005489 1.518624
H -2.460583 -0.906530 -0.245347