16
H7 C5 N3 O1
C 0.413644 0.417014 0.812006
C 1.419828 1.247128 -0.156290
C -1.314949 -0.259354 -0.979073
N 2.224698 1.696267 -0.761460
C 0.505624 -1.665045 -0.700338
C -0.507812 1.541068 1.295983
O -0.738751 2.563593 0.606052
N -0.233924 -0.518236 -0.288433
N -2.015043 0.494794 -0.999072
H 0.663876 -2.342423 0.144923
H -0.372174 -0.342837 1.777230
H -0.939891 1.462530 2.242779
H -1.896225 -0.583927 -1.799537
H 1.195420 -0.098859 1.358141
H 0.005012 -2.217758 -1.499824
H 1.590678 -1.393945 -1.053084