19
H10 C8 O1
C 0.368301 -1.484054 0.328085
C 0.911685 -0.459976 1.046726
C 1.419652 0.290450 -0.348510
C 0.090406 -0.296828 -0.701674
C -0.286404 0.321901 0.636722
C -0.720207 -0.227660 -1.949070
O 1.248604 1.772433 -0.087805
C -0.940717 -0.905311 1.363950
C -0.117071 1.799353 0.559059
H -0.237799 -0.693010 -2.777364
H 0.775801 -2.497492 -0.041312
H -0.911956 0.837327 -2.217190
H -1.697393 -0.696504 -1.827326
H -0.011639 2.275445 1.507146
H 2.333978 0.125069 -0.918398
H -0.784628 2.389848 -0.065295
H 1.405449 -0.396045 2.025467
H -1.028998 -0.738099 2.457234
H -1.817080 -1.416871 1.009582