18
H9 C8 N1
C 0.285918 -1.372355 -1.023165
C 1.057769 0.121136 0.096426
C -1.488831 0.250729 0.377053
C -0.008553 0.970266 -0.361913
C -0.713583 -0.030113 -1.029791
C 0.389677 1.597520 0.804588
C 1.660860 -0.737537 -0.707530
C -0.659534 0.773767 1.495779
N 0.926372 0.460316 1.498105
H -0.972757 0.867466 2.497106
H -0.080721 -2.137865 -0.273556
H 2.141391 -0.230534 -1.661161
H -2.355378 0.905960 0.176060
H -1.071386 0.050278 -2.040092
H 0.271122 -1.932327 -1.957631
H 0.615855 2.565036 1.024946
H -1.988133 -0.823835 0.623087
H 2.388861 -1.356366 -0.267997