18
H9 C6 N1 O2
C -0.793282 -1.733963 1.454176
C -1.459923 -2.272204 2.382465
C 1.297029 2.965789 -0.822851
C -0.591709 -1.987751 -0.853988
C 0.263709 0.814764 -0.366832
O -0.082545 0.682826 -1.501549
C 0.058283 -0.164512 0.801069
O 0.942169 1.786286 -0.013299
N -0.100232 -1.542125 0.344496
H 1.858375 3.592521 -0.251405
H -1.711783 -1.865232 -0.933769
H -1.986732 -2.816780 3.085773
H 1.876960 2.561438 -1.687168
H 0.367752 3.378213 -1.225397
H -0.139747 -1.556942 -1.762095
H 0.846459 -0.050918 1.451303
H -0.845397 0.409382 1.099045
H -0.389395 -3.059344 -1.009429