19
H10 C8 O1
O -1.922069 -1.721960 -0.866147
C -0.833460 0.903775 -1.520602
C 1.278370 1.446216 -0.860831
C 0.757549 0.730533 0.006632
C -1.646162 -0.682910 0.039303
C -0.679614 -1.071631 1.177495
C -0.784684 0.541815 -0.390565
C 2.038987 0.060003 0.446785
C 0.155205 0.137705 1.059098
H 1.680763 2.418302 -0.317932
H -2.606834 -0.240628 0.449618
H -1.339282 0.919147 -2.447911
H 0.000648 0.869470 1.918803
H -1.172505 -1.896908 -1.434985
H -0.074731 -1.975479 0.971466
H 2.620631 0.402914 1.129405
H -1.155394 -1.200972 2.144133
H 2.166762 -0.813455 -0.033451
H 1.626364 1.420972 -1.760241