21
H12 C7 N2
C 0.970154 -0.730503 0.744295
C 1.777796 -1.852074 -1.387350
C 0.989869 -0.872286 -0.763303
C -1.068311 0.792215 1.360479
N -0.548637 2.151438 0.975424
C -1.900088 1.870543 0.749576
N -0.823910 -0.035520 -0.938682
C -0.656156 -0.473876 0.565658
C 0.478227 0.386304 -1.114512
H 0.867872 1.315881 -1.576985
H -1.040083 0.643488 2.418158
H -1.306499 -1.308874 0.779776
H 1.479764 0.158950 1.128498
H 1.465347 -2.918735 -1.211341
H 2.840475 -1.820675 -1.248477
H -2.637086 2.219532 1.438954
H -0.246840 2.670447 1.680916
H 1.618536 -1.783738 -2.518283
H -1.301111 -0.637147 -1.476996
H -2.185808 1.863426 -0.252199
H 1.161972 -1.555216 1.275299