17
H8 C5 O4
O 2.079630 -0.067116 1.120749
C 1.467999 -0.566779 -0.040470
C 0.063130 -0.312394 0.563135
O -0.453337 -1.561494 1.044424
C -0.979756 0.454748 -0.202049
C -1.360227 -0.131226 -1.599321
O -0.500952 1.778339 -0.445950
C 0.864229 0.509389 1.641290
O 1.969066 -0.938186 -1.130515
H 0.361649 1.899796 -0.815224
H -1.796235 0.538221 0.352041
H -2.202129 0.435490 -2.051439
H 0.268922 -2.075362 1.458465
H -1.561443 -1.196879 -1.451933
H 0.756362 1.506246 1.594710
H -0.546199 -0.091124 -2.319238
H 0.659350 0.066017 2.633887