22
H13 C7 N1 O1
C 1.084283 1.759091 0.480588
C -0.210203 -0.773969 -1.813980
C -1.604279 0.853187 -0.639120
C 0.912754 0.283385 0.173294
N -0.908758 -1.114306 0.665639
O 1.955310 -0.688930 -0.245994
C 1.431677 -0.763825 1.011247
C -0.507327 -0.086922 -0.520603
C 0.213271 -1.555648 1.523772
H 0.601752 -1.343353 -1.833078
H 2.044930 1.937419 0.744570
H -1.069989 -1.319955 -2.174289
H 0.395814 -2.624398 1.282299
H -0.068104 0.042320 -2.650049
H -1.473854 1.668510 -1.379109
H 0.421097 2.135230 1.286294
H 0.086896 -1.464311 2.511393
H 2.151867 -0.523495 1.772934
H 0.775874 2.439832 -0.378672
H -1.502197 -0.571614 1.275001
H -2.521076 0.376224 -0.808706
H -1.770723 1.506975 0.292444