12
H3 C3 N4 O1 F1
N 1.222601 -0.046349 -2.525646
C 1.513030 0.307131 -0.277815
N -1.830113 0.206512 1.294004
C 0.133420 0.023176 -0.028757
O -0.138287 -0.405687 -2.351630
N 1.934382 0.208077 -1.509931
N -0.667310 -0.313014 -1.046229
C -0.502748 0.121979 1.329918
F 2.313478 0.532080 0.735645
H -1.591321 -0.279377 -0.904434
H 0.173716 0.200359 2.177995
H -2.111821 0.256485 2.262640