19
H10 C6 O3
C -1.439368 -1.543415 0.999655
C 1.522263 -0.017838 -1.673393
C -0.301470 -0.179633 -0.793651
C -0.259979 0.840939 1.086241
O 1.002060 1.230175 0.576014
C 1.407896 1.012553 -0.686184
O -1.325918 1.625964 0.752577
C -0.327413 -0.595143 0.727850
O 0.468775 -0.920670 -1.695554
H -1.297280 -0.012458 -1.203917
H 2.102685 1.847344 -0.864261
H -0.178364 0.900782 2.175554
H -1.272144 -2.552044 0.551698
H -1.503791 -1.618472 2.092465
H 1.610407 0.389931 -2.680352
H 2.532473 -0.596327 -1.534387
H -0.847091 2.496917 0.419520
H -2.384035 -1.120088 0.675907
H 0.601366 -1.192239 0.878822