17
H10 C6 O1
C -0.134795 -0.032783 0.143782
C -1.052567 -0.613145 -0.380164
C -2.173170 -1.199693 -1.001594
C -2.984258 -0.191179 -1.799417
C 3.298771 0.585248 1.414413
C 1.035120 0.758849 0.748851
O 2.201146 -0.022440 0.932575
H 0.781472 1.108872 1.782186
H 1.269093 1.693243 0.169894
H -2.748532 -1.755152 -0.292435
H -1.771391 -2.120148 -1.623663
H -3.955148 -0.697815 -2.212196
H 3.101069 0.928694 2.508053
H -3.351921 0.599256 -1.154640
H 3.591474 1.526773 0.847650
H 4.130387 -0.102143 1.501156
H -2.499998 0.184828 -2.590816