18
H9 C8 N1
C -0.317375 -0.012541 1.389224
C 0.380869 -0.935984 -0.771667
C 1.404994 -1.077607 0.312009
C -0.858710 -0.351543 0.044695
C 0.803230 0.317782 -1.688046
N 0.034835 1.304295 -1.570407
C -1.252976 0.866496 -0.849003
C 1.098801 -0.484001 1.412017
C -0.833199 0.572540 2.471481
H -1.567105 1.732918 -0.205967
H 1.740237 -0.301335 2.244195
H 1.280454 -0.007704 -2.604186
H -1.973205 0.653933 -1.606136
H 2.410651 -1.536164 0.093830
H 1.389836 1.048987 -1.162686
H 0.209253 -1.782979 -1.345754
H -1.679544 -1.109579 0.058754
H -1.219427 1.051805 3.368559