17
H8 C4 N4 O1
C -0.785327 1.115515 -0.891131
N 0.472809 -0.425409 0.585699
N 0.623964 -1.173205 -1.632904
N -0.295754 0.521914 0.244753
C 0.722838 -0.757610 1.994784
N 1.702550 -2.327531 0.039736
C -1.637770 2.332450 -0.613706
C 0.954395 -1.354352 -0.430294
O -0.687622 0.862913 -2.024514
H -2.071341 2.761423 -1.519033
H 0.504367 -0.530949 -2.254681
H 1.243550 -1.702209 2.088201
H -2.540238 1.959259 0.002952
H -0.211023 -0.810768 2.527933
H 1.314411 0.062076 2.433831
H 1.912904 -2.893690 -0.833877
H -1.103230 3.093823 -0.036832