20
H11 C7 N1 O1
C 0.159642 -0.628098 -0.029545
C -1.669256 0.547014 -0.892106
C 2.697178 -1.309437 -0.494351
C -1.461031 1.312590 1.618183
C -0.963826 1.372205 0.172072
N -1.040633 -0.781330 -0.803380
C 1.203107 -1.543317 -0.050234
C 0.019163 0.547484 -0.727692
O 0.849688 -0.982389 1.164366
H -0.703505 2.424618 -0.168675
H 0.844332 -2.684122 -0.070052
H -1.833632 0.991506 -1.913185
H 0.808193 0.711403 -1.542552
H 2.801406 -1.752084 -1.451349
H -2.809741 0.463444 -0.556862
H -1.857349 0.275479 1.842848
H 2.943850 -0.303869 -0.441088
H -0.610192 1.441106 2.350901
H 3.315283 -1.872007 0.176534
H -2.274853 2.005516 1.730669