20
H12 C6 O2
C -0.390680 -1.919342 0.978349
C 1.436583 1.204207 -0.797017
C 1.101818 -0.187037 1.304651
C -1.577776 0.308300 -1.574265
C 0.375665 0.743298 0.286401
O 0.153766 -1.036916 1.888572
C -0.902355 0.030217 -0.268300
O -0.500990 -1.358569 -0.334507
H -1.592788 0.153963 0.557097
H 0.030901 1.684304 0.753385
H -1.407330 -2.200528 1.344635
H -2.621296 -0.168421 -1.512346
H 2.250480 1.805193 -0.351861
H 1.826579 0.352201 -1.312098
H -1.660136 1.415547 -1.680926
H -1.119273 -0.222559 -2.302031
H 1.510433 0.438746 2.191733
H 1.922617 -0.757168 0.891193
H 0.910796 1.834521 -1.542028
H 0.205578 -2.737673 0.931357