17
H8 C6 N2 O1
C -0.377571 1.710595 1.387405
N -1.106509 -1.694715 -1.913047
C -0.223394 0.488229 0.618472
C 0.968692 -0.212372 0.257656
O -1.203192 -0.020645 -0.134932
N -1.254455 2.654057 1.103948
C 0.855343 -0.168925 -1.254700
C -0.436867 -0.967185 -0.984955
C 0.407035 -1.698201 0.240024
H -1.886398 -1.090835 -2.159966
H 1.962030 -0.021660 0.855611
H 1.600661 -0.727000 -1.834162
H 0.288163 1.817365 2.248980
H -1.284534 3.378151 1.737459
H 0.809844 0.802575 -1.744672
H 1.061958 -2.463977 -0.065753
H -0.173200 -1.904933 1.109585