22
H14 C6 O2
C 0.757586 -3.482315 0.348579
C -0.404906 1.233553 0.165747
C 1.270222 -0.184546 -0.186949
C -2.003433 2.981998 0.852657
C 0.626143 0.841250 -0.835285
O -1.089877 2.449813 -0.119457
O 0.572382 -1.991527 0.130452
C 1.380749 -1.512515 -0.736789
H -1.003545 0.506064 0.631351
H 0.088322 -3.840116 1.066484
H 2.494395 -1.888371 -0.693109
H 1.142207 -1.651728 -1.703077
H -2.427594 3.788991 0.375155
H 1.792607 -3.696813 0.747838
H 1.899980 0.028435 0.659234
H 0.304025 0.697637 -1.868685
H -2.806954 2.192284 0.922894
H 0.724971 -3.996171 -0.543063
H 1.296288 1.796899 -0.966283
H 0.161390 1.516990 1.092896
H -1.623309 3.251762 1.815459
H -1.194866 0.208297 -0.881693