25
H16 C9
C 1.000182 0.349921 -0.217883
C -0.653473 -1.132324 0.468957
C 2.317107 0.876727 -0.867949
C 0.341209 -0.700165 -0.701913
C -1.519585 -0.450560 1.482827
C 3.263457 1.767149 -0.195181
C -0.725876 0.320170 -1.548301
C -2.752924 -1.140689 1.814987
C -1.177352 -0.975958 -0.966121
H -0.567168 -2.230597 0.583890
H -3.295925 -0.703583 2.637262
H 3.343132 1.493373 0.818097
H 4.268306 1.533136 -0.680697
H 2.977549 2.743159 -0.227719
H -1.822362 0.632283 1.129510
H -2.565000 -2.194217 2.057901
H -0.888776 -0.350569 2.275237
H -1.039621 1.136290 -1.212568
H -0.663508 0.330593 -2.709226
H 1.911442 1.464953 -1.817372
H 2.865473 -0.112989 -1.107042
H -3.510526 -1.137429 0.958628
H 1.111588 -1.500664 -1.005376
H 0.773838 1.047822 0.564326
H -1.876077 -1.653951 -1.427592