16
H7 C6 N1 O2
C 0.774462 -1.307446 -1.730749
N -0.326137 -0.988556 0.359420
C -0.742046 1.406635 0.195040
C 0.519167 0.982838 -0.583904
C -1.174209 0.109244 0.741392
O 1.179427 1.925177 -1.175463
C -0.356329 -0.606475 1.721644
O 0.847963 -2.529115 -1.787648
C 0.815116 -0.500152 -0.457265
H -1.413902 1.822486 -0.604025
H -2.296484 -0.080599 0.780873
H -0.611005 2.166115 0.864440
H 0.523108 -0.139355 2.038517
H 1.865250 -0.513087 -0.028275
H 0.843851 -0.713706 -2.607472
H -0.864772 -1.290369 2.366673