19
H10 C7 O2
C -0.593163 0.528709 -0.162549
C 1.176183 1.018888 1.871513
C 0.254936 -0.975733 0.465287
C -0.691004 -0.424690 -2.473666
C -0.248443 -1.605305 1.631427
O 1.206492 0.844586 -0.879190
C -0.200230 0.695161 -1.515212
C 0.640726 0.432157 0.650364
O -1.453320 -1.614020 1.888398
H -0.472318 -0.123969 -3.524896
H 0.462027 1.250214 2.593554
H 1.564654 2.013473 1.516887
H 0.781277 -1.549641 -0.219738
H 0.497679 -1.912110 2.434951
H -0.256366 -1.348437 -2.331813
H 1.980765 0.463756 2.300531
H -1.789024 -0.496123 -2.404157
H -1.611957 0.811087 0.276300
H -0.420139 1.656209 -1.925248