11
H3 C3 N5
N 1.454708 -1.193256 -0.440500
C 0.100497 0.773871 -0.343157
N 1.255284 0.079695 -0.728993
N -0.650588 -0.248880 1.570955
N 0.679879 -1.749853 0.326061
C -0.147572 -1.160154 1.196446
C -0.232683 1.616653 -1.201040
N -0.855899 1.156994 0.460049
H -1.028362 2.325620 -1.406960
H -0.433827 -1.993948 2.078360
H 0.504152 1.806719 -2.170680