19
H10 C8 O1
C -1.092360 -1.022825 -1.492449
C -1.622620 0.339197 -1.262559
C 0.345339 -0.094293 -0.226775
C 1.131539 -0.355452 0.912729
C -0.691471 2.178423 0.288573
C -0.639205 3.355672 0.787389
C -0.689396 0.948887 -0.342974
C 1.889861 -1.703070 0.898788
O 0.394936 -0.783471 -1.379535
H -1.796961 0.869805 -2.151846
H 0.549947 -0.223087 1.846950
H -0.824018 4.273750 1.273138
H -1.258758 -1.467117 -2.516756
H 1.925967 0.458510 1.069462
H 2.497963 -1.836414 1.688042
H -1.392050 -1.879364 -0.799160
H -2.673574 0.271290 -0.854566
H 2.429036 -1.834744 -0.018757
H 1.093298 -2.466496 0.845225