19
H10 C7 O2
C -0.012561 -0.431128 -0.936483
O -1.603835 -0.150451 0.809624
C 0.188411 -1.620996 -1.749021
C 0.701539 -0.454722 0.394026
C -1.522446 -0.220879 -0.571452
O -2.404399 -0.154662 -1.264369
C 0.657487 0.779135 1.307910
C 0.273033 2.119799 0.845206
C -0.351532 -0.313514 1.465760
H -0.126736 -2.589362 -1.197799
H 1.150895 2.584995 0.285861
H 0.306345 0.435728 -1.492481
H 1.545407 -1.185146 0.518105
H -0.584883 2.104444 0.164148
H 0.112629 2.808715 1.682281
H 1.214988 -1.778407 -2.094830
H -0.531950 -1.633821 -2.632170
H -0.407596 -0.973614 2.341996
H 1.395225 0.673893 2.123681