20
H11 C6 N1 O2
C -0.266290 -1.464254 -1.371982
C -1.655505 -2.195621 -1.648056
O 0.925759 2.044292 1.114862
C -0.914327 -0.813455 -0.078194
C -0.643331 0.569417 0.190164
C 0.839016 0.753363 0.550187
N -2.273904 -1.133625 -0.727035
C 2.308194 2.240995 1.390470
O 0.705917 -1.358566 -1.985468
H 2.962035 2.302037 0.536155
H 2.375896 3.255092 1.926448
H -0.776622 -1.547575 0.761565
H -0.932068 1.239818 -0.642499
H 1.432113 0.623412 -0.375522
H 1.171720 0.024475 1.265319
H -1.748485 -3.240159 -1.226437
H -1.258668 0.931020 1.066223
H -2.980450 -1.542698 -0.115217
H -2.041221 -2.181997 -2.716854
H 2.770216 1.494042 2.085886