14
H6 C6 O2
O 1.062795 1.188690 -1.722968
C -1.019307 0.070028 -0.664791
C -0.394274 0.801870 0.445672
C 0.070612 -0.988104 -0.745755
C 0.325712 -1.372622 0.645091
C 0.335284 0.549750 -0.912664
C 0.103773 -0.139142 1.489031
O 0.742083 -2.495147 0.991937
H 1.031322 0.152108 1.988281
H 0.830898 2.238954 -1.670667
H 0.215536 -1.700029 -1.574466
H -1.976075 0.140247 -1.219960
H -0.641206 -0.315707 2.269783
H -0.687179 1.869086 0.681474