16
H7 C5 N1 O3
C -0.212305 -1.419119 0.544711
C 1.454890 1.333588 0.826141
O 0.357877 -1.794743 -1.812756
C -0.336571 -1.156445 -0.891766
O 0.247716 1.166210 0.383448
C -0.296392 0.032488 0.128922
N 1.886085 2.456781 1.162378
C -1.685193 0.268811 -0.414633
O -1.747163 -0.962727 -1.201666
H -1.739051 1.166458 -1.040132
H -0.915706 -1.928426 1.171557
H -2.575768 0.267714 0.298874
H 1.987521 2.959639 1.752324
H 0.743163 -1.086516 -2.416535
H 1.946286 0.348320 0.635077
H 0.884609 -1.652034 0.874081