17
H8 C5 N2 O2
C 0.490351 1.740579 1.536801
C -1.570852 0.097976 -0.272709
C 1.638504 -1.567098 -1.068829
N 0.424321 2.817665 1.890498
C 0.531079 0.295216 1.149912
O 2.680731 -0.865600 -0.853761
C -0.061663 0.069450 -0.241291
O -2.126995 1.346759 0.114214
N 0.349978 -1.306553 -0.710204
H -1.988653 -0.525444 0.470981
H -1.782340 2.050844 -0.469921
H -0.303335 -1.900258 -1.074189
H -1.891716 -0.152631 -1.252671
H -0.016981 -0.318559 1.907395
H 1.555906 0.001078 1.170768
H 1.751805 -2.571567 -1.429307
H 0.319852 0.788132 -0.867694