17
H8 C7 N2
C -0.000195 0.675278 0.667549
C 1.338842 0.632771 0.005187
C -0.783602 -0.488195 0.401037
C -1.943965 0.748848 1.670914
C -0.114287 -1.369509 -0.542098
N -1.918271 -0.373694 1.107296
C 0.186694 -0.792280 -1.891136
C 1.267168 -0.694490 -0.873976
N -0.773927 1.435650 1.451341
H 2.164775 0.475399 0.714981
H -0.518039 2.350497 1.783401
H -2.693938 1.177385 2.368640
H 2.186169 -1.305613 -0.974478
H 1.541008 1.480121 -0.605170
H -0.077757 -2.484607 -0.422948
H -0.265914 0.097316 -2.207070
H 0.405237 -1.564877 -2.653507