17
H8 C5 N2 O2
C -0.836205 0.088303 -0.843911
N 1.037112 0.713308 0.484307
C -1.602320 -1.247977 -1.073099
C -0.904340 -2.488370 -0.769685
C 1.355368 1.885512 1.195982
N 2.615280 2.318172 1.184188
C -0.318269 0.167554 0.569038
O 0.424727 2.526337 1.732356
O -1.006079 -3.037663 0.319001
H -0.953450 0.885907 1.146298
H 3.252686 1.900324 0.781708
H 1.752430 0.153431 0.125041
H -0.295944 -0.749154 1.123833
H -0.006014 0.098708 -1.580858
H -1.533415 0.889513 -1.079975
H -2.505660 -1.215736 -1.602733
H -0.475918 -2.888169 -1.711517