20
H11 C7 N1 O1
C -0.787714 -1.760256 -1.169278
C 1.171910 -0.099274 0.672651
C -0.156330 0.533341 0.077550
N 2.004679 -0.924798 0.079803
C -0.923092 1.405047 0.991859
C 1.645477 0.248975 2.023446
C -0.115839 0.744469 -1.432953
O 1.188534 0.965604 2.753395
C -1.030319 -0.313886 -0.833824
H -1.246187 0.919506 1.871956
H 0.760250 0.426891 -1.909917
H -0.637926 1.621308 -1.724603
H -1.146274 -2.415456 -0.401447
H 0.274306 -2.038423 -1.347344
H -0.254665 2.303847 1.327922
H -1.799624 1.862177 0.426380
H -1.362705 -2.022651 -2.132813
H -2.061535 -0.075842 -0.725949
H 1.825013 -1.126614 -0.824052
H 2.652068 -0.253965 2.277200