18
H9 C6 N3
C 0.338849 2.177841 -0.253760
N -0.670141 -1.118380 -1.681879
C -0.008835 -2.693034 0.311974
N 0.197181 -0.170332 0.007901
C 0.141236 0.748459 -0.847308
C -0.269908 1.924695 1.119902
C 0.633822 0.751593 1.081845
C -0.185212 -1.438943 -0.440986
N -0.449190 0.239146 -1.983030
H 1.401156 2.525110 -0.212918
H -1.024992 -1.725727 -2.404855
H 1.031603 -2.973962 0.391334
H -0.454488 -2.575466 1.263193
H -0.160426 2.911150 -0.808699
H 0.061774 2.589514 1.927394
H -1.334946 1.695766 1.093339
H 1.362551 0.549781 1.709994
H -0.610039 -3.417227 -0.273434