18
H9 C6 N3
C 1.424573 -1.294707 -0.369629
C -0.642827 0.637796 0.006922
C -0.882079 2.155949 1.512910
N 0.318747 1.552452 1.821757
C 0.408301 0.602405 0.887657
C -0.692964 -0.265224 -1.187965
N 1.476397 -0.343707 0.833997
C 0.042591 -1.615890 -0.825968
N -1.476274 1.608745 0.477624
H 2.024724 -0.855040 -1.199545
H -1.759851 -0.562447 -1.442735
H 0.058511 -2.235408 -1.674045
H -1.342774 2.896808 2.129796
H -0.294856 0.124304 -2.082709
H -2.419374 1.888302 0.138795
H -0.545918 -2.127432 -0.034602
H 1.926011 -2.159834 0.013045
H 2.377084 -0.007081 0.994678