19
H10 C7 O2
C -1.518623 0.725463 -0.650731
C 1.892399 0.937525 0.250408
C 3.240554 1.501976 0.424844
C 0.783384 0.389133 0.140065
C -1.087061 -1.043923 1.105569
O -2.904878 0.341814 -0.532796
C -0.572918 -0.251965 -0.029443
C -0.489300 -1.632156 -0.733372
O -1.454603 -2.140191 0.174232
H -1.994154 -0.577529 1.647822
H 0.454660 -2.230298 -0.669464
H 3.262628 2.053825 1.352399
H 3.948217 0.742435 0.351934
H -1.237700 0.932615 -1.712315
H -0.868131 -1.738595 -1.807146
H -2.985685 -0.598984 -0.646666
H -0.353205 -1.340940 1.907537
H -1.511080 1.719977 -0.152527
H 3.395508 2.209842 -0.420354