10
H3 C3 N3 O1
O -1.259066 2.272492 0.553137
C -0.176663 0.334707 -0.088298
C 0.197212 -0.348430 1.110032
N 0.849101 -1.455846 0.809063
N 0.260810 -0.426342 -1.137555
N 0.790708 -1.540060 -0.537249
C -0.851771 1.540627 -0.379834
H 0.045599 0.057391 2.139131
H -1.026655 1.804749 -1.465563
H 1.170729 -2.239305 -1.002869