16
H7 C7 N1 O1
O 1.564545 -2.512505 -0.062905
C -0.891872 0.115557 1.174009
C 0.160589 -0.628120 0.360498
C 1.039158 0.584050 -0.185535
C 0.098755 -0.210143 -1.080498
C 0.821214 -1.901801 0.694313
C 0.173598 1.553804 -0.533388
C -1.034186 0.819398 -0.979836
N -1.074929 1.400075 0.320636
H -1.909145 0.903085 -1.679533
H 0.464371 -2.352219 1.651999
H -0.595870 0.478118 2.160599
H -1.842010 -0.408808 1.154756
H 0.418817 -0.834776 -1.914974
H 0.423421 2.484803 -0.982440
H 2.183519 0.509462 -0.097726