21
H12 C6 N2 O1
C -0.283794 1.125214 -1.745169
C 1.692091 0.528904 -0.093082
C 0.278852 0.302426 -0.654278
N -0.231964 -0.352146 -1.913611
C -0.095192 -0.332072 0.709675
N 1.312259 -0.167021 1.121542
C -1.063388 0.615175 1.469568
C -0.391363 -1.791325 0.689678
O -0.441112 1.728800 1.833581
H 0.392544 -2.374399 0.229194
H 2.476754 -0.062717 -0.675753
H -1.246338 1.540604 -1.920840
H 1.974811 1.537991 -0.074469
H 1.361067 0.518998 1.867575
H -1.383579 -2.054830 0.320262
H 0.457229 -0.746026 -2.442390
H 0.534025 1.705987 -2.257835
H -1.925100 0.871861 0.800942
H -0.465725 -2.203357 1.764963
H -1.433967 -0.423513 -1.374026
H -1.518110 0.031448 2.344447