16
H7 C5 N3 O1
N -0.324028 -0.258474 -0.814501
C 0.675836 1.375353 0.822269
C 0.722100 -0.996723 -1.226528
C -0.325894 0.661817 0.274518
O 1.883619 -0.672606 -1.084970
C -1.270018 1.705702 1.822398
C 0.300062 -2.421558 -1.621149
N -1.529918 0.915672 0.845361
N 0.059695 2.079922 1.788352
H -1.230273 -0.360553 -1.279579
H 1.778422 1.431767 0.647772
H -0.481303 -2.399184 -2.373314
H -1.944857 2.129037 2.525536
H 1.171764 -2.906185 -2.034229
H 0.550536 2.698689 2.444554
H -0.035775 -2.982680 -0.736476