14
H6 C5 O3
O -1.940058 1.232104 -1.085325
C 0.031890 0.248385 1.267705
C -0.740274 1.163381 -0.978132
C -0.448129 -1.295059 -0.772385
O 2.488237 0.319877 1.630640
C 1.500447 0.281112 1.039746
C -0.019247 0.089045 -0.242798
O 1.428755 0.185530 -0.365840
H -0.393983 -1.257813 -1.881026
H -1.468562 -1.510226 -0.449952
H -0.345133 -0.601322 1.829227
H -0.039492 2.028037 -1.309783
H -0.305350 1.182100 1.682872
H 0.250899 -2.065121 -0.364940