18
H9 C6 N3
C -1.194296 -0.614422 -0.710973
N -2.448148 -0.270146 -1.029466
C 0.869484 -0.715066 0.873463
C 1.846030 0.142335 0.154152
N -2.258650 1.216880 0.909388
C -0.522870 -0.161957 0.456355
C 2.651891 -0.322563 -0.959561
N -1.039563 0.778991 1.245510
C -2.959924 0.633090 -0.187833
H -3.940657 1.014972 -0.323763
H -0.620094 -1.323719 -1.330926
H -2.778529 1.845491 1.450626
H 1.017430 -0.490903 1.986534
H 0.932591 -1.716379 0.697777
H 1.835556 1.210231 0.450819
H 2.814694 -1.359780 -0.927771
H 3.603939 0.157022 -0.851413
H 2.191118 -0.024086 -1.902908