22
H13 C6 N1 O2
C -0.901257 1.400822 -0.740481
C 0.043160 0.270451 -0.694027
C -1.536328 0.061105 1.030751
O 1.383078 0.548031 -1.175713
C 0.014378 -0.123599 0.772710
O 0.355621 -1.605684 2.756378
C 0.521616 -1.476120 1.319023
C 1.718449 -0.100218 -2.382365
N -1.859604 1.379019 0.466836
H 0.354648 -0.662509 3.133785
H -1.813381 -0.064325 2.140213
H 0.930745 0.017734 -3.176627
H 1.555866 -1.547123 1.059312
H -2.057062 -0.750599 0.449304
H -1.531818 1.470308 -1.628095
H -1.580458 2.026997 1.190575
H -0.335094 2.325766 -0.627178
H -0.023275 -2.266883 0.864707
H 2.712234 0.256308 -2.684817
H 0.557685 0.675892 1.371339
H 1.821303 -1.235174 -2.162856
H -0.330474 -0.600200 -1.282746