15
H6 C7 O2
C 2.158746 0.335030 0.200670
C -0.480923 0.041329 -0.259267
O -2.296283 -1.220281 -1.116236
C -2.287564 1.093489 -1.466263
C 2.563597 -0.460420 1.401507
C 0.693098 0.165905 -0.007194
O -3.433868 1.585419 -1.540156
C -1.896208 0.009665 -0.523108
C 2.873179 -1.129943 2.428854
H -2.482960 0.230997 0.435569
H 2.373392 1.383516 0.369405
H -2.117212 -1.895599 -0.342273
H 2.686722 -0.059919 -0.663589
H 3.167547 -1.605307 3.274754
H -1.521271 1.526115 -2.192679