17
H8 C6 O3
C 2.136470 0.362506 1.378953
C 0.705043 0.167677 0.901257
O 0.009659 -0.156068 2.011815
C 0.482546 -0.364381 -0.440841
C -1.746001 -0.634516 -1.651828
O -0.316107 2.299803 -0.237887
C -1.080235 -0.103246 -0.406751
C -0.224376 0.991502 -0.061614
O 2.723583 1.416398 1.524083
H -1.567365 -0.003842 -2.447985
H 2.611848 -0.639316 1.506607
H -1.379859 -1.627655 -1.895165
H 0.047943 0.595694 2.647600
H 1.428534 0.032148 -1.227958
H -1.733486 -0.257175 0.513886
H 0.745256 -1.405679 -0.627284
H -2.843465 -0.673865 -1.486873