17
H8 C5 N4
C -0.327486 -1.398676 -0.123347
N 0.585990 -1.501651 -1.079853
C 0.231107 1.848694 -0.915654
N -0.750328 -2.838869 -0.348090
C 0.702838 0.343530 1.122031
C -0.657162 -0.442280 0.914082
N 0.092092 -2.697856 -1.271607
C -0.558385 2.261245 0.061658
N 0.610489 1.666436 0.621432
H -1.005527 3.053640 0.414215
H 0.861804 0.443199 2.252457
H 0.827579 2.680882 -1.507087
H -0.937616 -1.067797 1.841114
H -0.117160 0.980897 -1.578454
H 1.601446 -0.098544 0.744646
H 0.401278 -3.371378 -1.959244
H -1.560976 0.138560 0.811659