14
H6 C6 O2
C -0.798814 0.424689 0.756376
C 0.636257 0.774722 0.451954
C 0.365688 -1.261901 -0.273134
O -2.462649 1.258311 -0.894472
C -1.411028 0.818719 -0.622520
O -0.256437 0.822563 -1.568303
C 0.754030 0.089879 -0.872704
C 0.382854 -0.584293 1.062769
H 1.198525 -2.041700 -0.443676
H 1.662074 0.111673 -1.408534
H 0.707601 -0.918453 2.001267
H 1.159174 1.638805 0.884219
H -0.494966 -1.740730 -0.699358
H -1.442295 0.607706 1.626079