16
H7 C5 N1 O3
O 1.611324 -0.858343 0.743905
C 1.416088 -1.245265 -0.622708
C -1.125405 0.792335 0.794645
O -1.005882 -1.114641 -0.828618
C 0.238970 -0.513238 -1.223881
O -2.577191 0.687397 0.882074
C -0.805812 0.308462 -0.640596
C 1.853135 0.315843 0.954493
N 2.200006 1.322504 1.357494
H -0.683246 0.123456 1.575394
H -1.281880 0.971873 -1.361954
H 2.313455 -1.042975 -1.183301
H -2.888931 1.131908 1.694316
H -0.800771 1.822229 0.848036
H 0.341757 -0.357804 -2.391040
H 1.194407 -2.343730 -0.598247