19
H10 C7 O2
C -1.049247 0.456669 -2.099199
O 1.678780 1.162787 1.159051
C 0.326206 1.279354 0.545653
C -0.725244 0.159910 0.839849
C 1.303773 -1.263870 0.967239
C -0.147258 -1.086386 0.155521
C 1.987103 -0.149527 1.321099
O 1.762572 -2.417634 1.233127
C -0.886904 -0.632952 -1.072265
H -0.048252 2.219296 1.027204
H -0.427401 -2.134878 0.272884
H -1.806876 0.260756 0.760141
H -0.776595 1.485213 -1.789771
H -0.472973 0.250437 -3.002795
H 0.619629 1.539550 -0.411756
H -0.640098 0.017076 2.019473
H -1.530300 -1.463778 -1.399456
H 2.901913 -0.205777 1.854863
H -2.068859 0.523742 -2.380875