16
H8 C4 N4
C -0.544070 -0.544530 0.200476
N 1.445826 1.427250 0.594111
C -1.502950 -1.272611 -0.514961
C -0.174272 -0.802912 1.662645
N -0.603293 0.015104 -1.949578
C 0.053653 0.335364 -0.729101
N -1.614170 -0.880975 -1.774009
N 1.061439 1.236182 -0.770232
H 1.119505 1.845108 -1.610579
H -0.960869 -1.479928 2.109362
H -2.206941 -1.977079 -0.207378
H 1.886945 0.587173 0.962274
H -0.277030 0.125451 2.233330
H -0.319826 0.374411 -2.800448
H 1.886300 2.293953 0.762806
H 0.749765 -1.281981 1.831288