18
H10 C5 N2 O1
C -0.166537 -1.456901 -0.438919
C 0.312897 -0.118579 -0.096126
N -0.532331 1.048133 0.286101
C 0.252046 2.201385 0.197001
O 1.570145 1.921574 0.017766
N -0.273033 3.395509 0.226658
C -1.455173 -1.871278 0.143227
C 1.637974 0.332616 -0.057023
H -2.340795 -1.276167 -0.294124
H 0.476020 -1.865193 0.891714
H -1.463097 1.079425 0.424268
H 2.221103 0.175099 -0.901410
H -1.493261 -1.637303 1.254071
H 0.511712 4.136841 0.082986
H -1.596303 -2.967449 -0.009926
H 0.640395 -2.022655 -0.854043
H -0.617301 -1.113779 -1.672733
H 2.315580 0.038717 0.800503