18
H9 C6 N1 O2
C 0.917017 1.014303 -1.611458
C 0.595164 -1.424366 -0.803137
C -0.626990 0.608851 0.402998
O -1.851898 0.397386 -0.186994
C -0.045377 0.016334 1.637384
N -2.137375 0.117964 3.460130
C 0.573451 0.106938 -0.397945
C -1.245723 0.087421 2.660394
O 1.304897 0.336809 0.896621
H -0.569077 1.635197 0.555425
H 0.036669 1.133347 -2.195442
H -0.233012 -1.623931 -1.427935
H -2.199759 -0.401489 -0.117890
H 1.689258 0.570293 -2.291201
H 0.608486 -2.050547 0.072764
H 1.327536 1.958497 -1.281448
H 1.513846 -1.617488 -1.302968
H 0.342895 -0.865524 1.930717