13
H5 C5 N2 F1
N -0.372679 -0.823943 -0.651668
C -0.918930 0.033474 1.641284
C -0.203444 0.126960 0.494212
C 0.839148 1.007771 0.085941
C -1.543934 -0.018986 2.769176
N 1.212334 0.664050 -1.254278
C 0.534718 -0.453983 -1.683892
F 2.317045 1.180417 -1.722729
H 0.686653 -0.844192 -2.529277
H -0.297128 -1.830855 -0.344203
H 1.140821 1.866156 0.685222
H -1.393290 -0.785848 -1.130184
H -2.001302 -0.120985 3.640378