12
H3 C4 N5
C -0.428283 -1.530121 0.185872
N 1.411027 1.032248 -0.016914
N 0.240638 0.477567 0.014010
N 2.302730 0.127382 -0.018864
C -1.048325 0.946987 0.015642
C -2.049812 -0.067370 -0.060363
N 1.816142 -1.059744 0.013547
C 0.500229 -0.881851 0.047089
N -1.624086 -1.315639 -0.038992
H -3.105194 0.127376 -0.321804
H -1.309634 1.949125 0.404946
H 3.294568 0.194002 -0.224159