19
H10 C7 O2
C -1.474306 -0.103796 0.101926
C 0.113330 -0.011313 0.311660
C 0.855020 -0.014488 1.624550
C 0.648635 -1.165569 -0.647768
O 0.956423 -0.444609 -1.807116
C -1.257434 0.703858 -1.116441
C -0.005234 1.356740 -0.581136
C 0.073046 0.630106 -1.906209
O 0.644529 -1.312393 2.262707
H -0.010268 -1.930737 -0.857634
H 0.172672 1.214102 -2.834414
H -1.894462 -1.109869 -0.017200
H 1.558839 -1.548984 -0.202133
H 1.862691 0.222609 1.451999
H 1.106585 -1.268289 2.984802
H -1.973391 0.427539 0.912535
H -2.082325 1.204385 -1.712782
H 0.302303 2.372682 -0.253516
H 0.403344 0.778015 2.286196