20
H11 C7 N1 O1
C -1.897794 -0.659860 -0.231938
N -2.923111 0.133802 0.404398
C -0.446589 -0.318504 0.047882
C -2.790318 0.219161 -1.021723
C 1.634363 0.203030 -0.200202
C 0.845362 -1.071671 -0.284911
C 0.313441 1.027788 0.185874
C 2.727047 0.245411 0.829796
O -0.215945 0.277606 1.307922
H 1.042259 -1.942471 0.384605
H 2.479319 -0.280436 1.739101
H 1.994694 0.555962 -1.139818
H -2.452736 0.850853 0.994837
H 0.830847 -1.481661 -1.337918
H 0.092537 1.974483 0.042151
H -3.557394 -0.193650 -1.616157
H 2.987768 1.293332 1.160295
H -2.278825 1.085237 -1.502382
H -2.106440 -1.758092 -0.217644
H 3.721543 -0.160360 0.455841