21
H12 C7 O2
C -0.144915 -1.016650 -0.701443
C 0.963483 0.983299 0.755473
O 0.196977 2.060998 0.785414
C -1.263792 -0.308321 -1.450260
C 1.010036 1.812822 -0.374260
C 0.353036 -0.476467 0.578477
O -0.404850 -0.491444 2.947414
C -0.810105 -0.661731 1.590949
C 0.073028 -0.613455 -2.155255
H -0.074819 -1.367007 -2.845206
H 0.884443 -0.001224 -2.360038
H 0.374827 1.920330 -1.230785
H 0.516943 -0.139542 3.134642
H 1.245454 -1.136067 0.824941
H -1.502739 0.754651 -1.288460
H -2.181958 -0.869534 -1.492978
H -1.286930 -1.659024 1.569755
H -0.139495 -2.099387 -0.630514
H 1.992406 2.231127 -0.532481
H 1.788190 1.023126 1.500241
H -1.589205 0.053482 1.374398