17
H8 C6 N2 O1
C -0.227979 -0.977156 -0.073377
C -0.030294 0.309670 -0.045466
C 1.774544 1.931666 -1.779290
C 0.996406 0.752943 -1.118230
N 0.532697 -1.452325 -1.064201
N 1.296475 -0.545295 -1.581574
C -1.441744 -0.670075 2.051401
C -1.236287 -1.572251 0.798458
O 0.380948 1.366510 -0.044388
H -2.193326 -1.782516 0.250439
H -1.068414 0.353824 2.206063
H -1.111400 -1.225696 2.940396
H -0.918604 -2.612244 1.111328
H 1.071992 2.756113 -1.975125
H 2.172207 1.648785 -2.710603
H -2.551721 -0.576103 2.195720
H 2.554497 2.294140 -1.161556