22
H13 C7 N1 O1
C 2.006849 -0.025523 0.431128
C -1.279663 -1.955619 -0.649092
C -0.016727 -0.041416 1.809124
C 0.591666 2.252317 -0.593752
O -1.299072 0.814098 -1.083161
C -0.166571 1.010224 -0.353845
C 0.235550 -1.505672 -0.328234
C 0.497797 -0.129274 0.389433
N 3.180907 0.094858 0.568579
H -0.397989 -0.994450 2.211978
H 1.452052 2.361023 0.087341
H -1.879457 1.186505 0.217991
H 0.929704 2.286027 -1.682957
H 0.680824 0.355325 2.558564
H -1.148283 -3.054469 -0.821173
H 0.758745 -2.232906 0.314668
H 0.843325 -1.525945 -1.246148
H -0.649722 0.606141 -2.028475
H -0.086958 3.142499 -0.393860
H -1.548328 -1.491806 -1.545536
H -0.888539 0.605949 1.992324
H -1.816149 -1.757889 0.145087