20
H11 C6 N1 O2
C -1.778356 0.611953 1.332750
C 0.098700 -0.972954 0.480906
C 0.693391 -0.093276 -0.472295
C -1.072655 -0.772050 1.351236
O -0.998942 1.589483 1.766813
C 1.019069 -0.475800 -1.918596
C 1.382496 0.639391 0.722715
N 0.822629 1.303563 -0.470806
O -0.094682 -0.172853 -2.784122
H -1.786946 -1.533116 1.016607
H -0.151698 1.662748 -0.584979
H -0.790087 -1.136127 2.365591
H -2.641842 0.587545 2.090055
H 1.107628 1.010468 1.615459
H 2.479355 0.349768 0.615229
H 0.301769 -0.033269 -3.651719
H -2.201185 0.773422 0.343503
H 1.286362 -1.439839 -1.986650
H 0.391483 -1.971830 0.415998
H 1.933548 0.072745 -2.247669