16
H7 C7 N1 O1
C -1.352622 -0.576035 -0.410058
C 1.122737 -0.007755 -0.256650
C -0.547307 1.533235 2.477344
C 0.958686 1.064904 -1.209546
C -0.028916 -1.179725 -0.273860
N 0.542487 -0.359545 -1.399100
O 0.143205 -2.386713 0.296768
C -0.431914 0.905787 1.437248
C -0.273940 0.150247 0.319275
H 1.903605 1.479889 -1.468923
H -0.696065 2.088113 3.321017
H 0.117281 1.732021 -1.463140
H -2.107970 -0.917526 0.318345
H 2.115528 -0.338713 0.041553
H -1.791181 -0.190035 -1.303405
H 0.326370 -2.998115 -0.426872