21
H12 C8 O1
C 0.723353 -1.300820 0.031921
O 1.331476 0.037683 -0.208601
C -0.945710 0.189122 -0.484097
C 1.315400 -2.329858 0.966422
C -0.406515 -2.106413 -1.825576
C -0.300539 -1.282088 -0.765213
C -0.262360 2.196260 0.881131
C 0.175636 0.725338 0.471764
C -0.551059 3.183812 -0.165688
H 0.474102 -2.936218 1.426207
H -0.711268 4.112900 0.222115
H 1.889819 -1.870530 1.689189
H -0.965964 0.759018 -1.394163
H -1.138923 -1.872875 -2.618430
H -0.612518 3.003680 -1.102166
H 0.626413 2.621403 1.440635
H -1.919624 0.099472 0.027411
H 0.506953 0.464724 1.483276
H -1.244103 2.262304 1.460529
H 1.901565 -2.971094 0.375200
H 0.113861 -2.985774 -1.911847