19
H11 C5 N1 O2
C 1.423827 0.504882 -0.745393
N 2.484885 1.019508 -0.132737
C 0.044500 -3.221986 0.404380
C -0.444951 2.759696 0.146609
O -0.761836 1.416368 0.302425
C -0.380512 -0.879242 0.217029
O 0.296301 -1.981080 -0.301290
C -0.143243 0.459916 -0.494665
H -0.950775 -3.453922 0.133536
H 0.700505 -3.949103 0.069411
H -0.038924 2.819420 -0.976926
H -0.615030 0.345226 -1.521052
H 1.419726 -0.085095 -1.583747
H 0.117131 -3.159516 1.474370
H -0.920438 3.108377 1.251303
H -1.475567 -1.185052 0.135596
H -0.108858 -0.782995 1.286898
H 0.585976 2.884972 0.499026
H -1.232702 3.379648 -0.164758