21
H12 C7 N2
C 0.859732 -1.335762 -0.884957
C 0.137675 0.426016 2.207011
C -0.610825 -1.421958 -0.458654
C -0.941504 0.071208 0.087212
C -1.377287 1.379500 -0.655376
N 0.249091 0.297979 0.805639
C 1.446701 -0.003906 -1.424209
C 1.377033 -0.149307 0.094102
N 1.400572 -2.211477 -1.654123
H 2.373848 -0.075424 -1.915980
H 0.666018 0.599133 -1.931327
H -0.527438 2.055440 -0.673046
H -0.326165 -0.408061 2.770615
H -0.495593 1.317524 2.454172
H 1.117336 0.650635 2.668022
H -2.192534 1.838793 -0.124409
H 2.314472 -0.150621 0.615005
H -0.750154 -2.192620 0.285923
H -1.201323 -1.712278 -1.358759
H -1.643361 1.195094 -1.664699
H -1.876306 -0.169917 0.757866