19
H10 C6 O3
C -0.813778 1.685855 1.366001
C 0.935596 -2.361423 -2.257217
C 1.079994 -0.929226 -1.571115
C 0.076692 0.592104 0.302928
O 2.175255 -2.654503 -2.559143
C -1.349977 1.567456 2.886417
O -1.219997 -0.577187 -1.474754
C -0.134772 -0.357331 -0.994870
O -1.344850 0.856754 0.654135
H 0.803886 1.276639 -0.021284
H 0.591425 -0.116091 1.015602
H 0.259331 -2.200781 -3.121511
H -2.073650 0.783093 2.879765
H 1.423038 -0.197254 -2.331716
H 1.943627 -1.038069 -0.867237
H -0.461439 1.603307 3.483498
H -0.462875 2.638603 1.144877
H 0.422825 -3.129089 -1.568629
H -1.850340 2.557134 3.034260