25
H16 C9
C 1.703011 0.193730 -1.392730
C -0.662377 -0.825799 1.574372
C -0.621946 2.157017 -0.553279
C 0.975057 -1.053685 -1.634804
C -0.837517 0.850722 -1.350036
C 0.143210 0.167741 0.684730
C -0.146276 -2.267323 1.555150
C -0.510223 1.543300 0.931555
C 0.249586 0.010972 -0.769925
H 0.515897 -1.159278 -2.684383
H -0.598905 -0.453389 2.639337
H -0.000624 2.210153 1.616907
H -0.904749 -2.925259 2.254457
H -1.666943 -0.759757 1.303878
H 2.615487 0.043425 -0.765761
H 1.877351 0.899761 -2.211565
H 0.804070 -2.498844 2.010163
H -1.438871 2.825149 -0.612342
H -1.780081 0.372085 -1.169341
H -0.709488 1.020204 -2.446320
H 0.350492 2.676522 -0.802998
H 1.225283 -1.938688 -1.227518
H -0.289640 -2.695664 0.563801
H -1.514412 1.428414 1.340679
H 1.222610 0.178419 1.145959