27
H18 C9
C 0.816934 1.847729 -1.149462
C -0.531486 -1.251477 0.477653
C -0.423967 -1.128552 2.040409
C -0.697035 -0.141861 -0.488164
C -0.346428 1.356159 -0.336814
C -1.171030 -2.611474 0.095012
C 0.834483 -1.311808 1.275724
C 1.404258 0.978105 -2.327799
C -0.258748 1.855307 1.128668
H -0.562946 -0.243233 2.531813
H 0.620307 0.589078 -2.962499
H 0.473762 2.747825 -1.727187
H 2.191674 1.445975 -2.948653
H -0.981804 -2.917803 -0.889031
H 1.478221 -0.515965 1.117482
H -1.029515 1.462499 1.706847
H 1.308632 -2.251295 1.364579
H -0.702066 -2.016780 2.682897
H -0.298072 2.980065 1.172709
H -0.869888 -3.417333 0.795695
H 1.904656 0.098675 -1.895551
H 1.611321 2.245462 -0.540065
H -1.214356 1.920575 -0.759061
H -1.827088 -0.146113 -0.754196
H -0.192762 -0.553812 -1.436430
H -2.258252 -2.533919 0.218546
H 0.721165 1.513959 1.606889