17
H8 C5 N2 O2
O 0.193212 0.669423 1.926512
C 0.658870 -1.489794 -0.059724
C -0.788473 1.208079 1.002036
C 0.618071 0.895708 0.579373
N 0.730711 -0.126308 -0.384350
C 0.317864 0.387315 -1.675609
C -1.910847 0.284193 0.741861
O 0.328635 -1.942646 1.258902
N -2.769521 -0.356722 0.463674
H 1.272429 0.594988 -2.280804
H 0.000490 -1.340821 1.688141
H 1.370163 1.727250 0.491997
H -1.058615 2.235646 1.155343
H -0.380091 -0.263042 -2.213208
H -0.197517 1.429985 -1.643487
H 1.660527 -1.914501 -0.303764
H -0.045938 -1.998774 -0.746893