18
H9 C7 N1 O1
C -0.616746 0.387565 -2.222341
C -0.457921 0.551900 -0.718252
C -0.080943 -0.698672 0.043663
C 0.404291 1.343331 -1.577870
O -0.609214 -1.690671 2.219128
C 1.025917 -0.405034 1.091152
C -0.085590 -0.347002 2.121429
C -1.094872 -0.945044 1.170756
N 2.303913 -0.457630 1.183561
H -1.578795 0.668611 -2.596851
H 2.622866 -0.506295 2.094185
H -1.143261 1.199290 -0.155164
H -2.167954 -0.978298 0.975101
H 0.158667 -1.575207 -0.580734
H -0.146299 -0.442389 -2.731946
H 1.520377 1.149727 -1.526377
H -0.200960 0.356388 2.953776
H 0.146506 2.389465 -1.743222