18
H9 C6 N1 O2
O 0.042903 -2.635834 0.148421
C 1.530525 -0.545296 -2.072707
C 0.171308 -0.235200 0.146779
C -1.598935 1.598263 0.292076
O 0.516779 1.484769 -0.949486
C -0.145609 1.256594 0.317515
N -0.047820 -1.439487 0.846984
C -0.381322 -1.507327 1.984829
C 0.747065 0.137128 -0.935856
H 2.699154 -0.592340 -1.665521
H 0.376129 1.678746 1.150950
H -2.206876 1.283155 1.135572
H -2.069902 1.295174 -0.663170
H -1.593800 2.723140 0.293121
H -0.331214 -0.612502 2.641225
H -0.539576 -2.444731 2.472103
H 1.574262 0.077788 -2.947390
H 1.256930 -1.522018 -2.195443