16
H7 C6 N1 O2
C -0.081517 -0.404161 0.282059
N 1.284860 -1.681884 2.428977
C 0.527986 0.470559 1.352869
C -1.368344 1.192914 -3.262472
O 1.942095 -2.257043 3.319881
C -0.953989 0.712810 -2.031429
O 1.674128 0.524700 3.347844
C 1.185565 -0.193094 2.535976
C -0.552179 0.274712 -0.924186
H -2.117549 0.583869 -3.757471
H 0.761498 -1.085930 -0.102856
H -1.781152 2.206162 -3.214531
H -0.517264 1.269567 -3.988882
H -0.956720 -0.856310 0.832508
H 0.732537 -2.209472 1.791383
H 0.220052 1.452611 1.390313