22
H13 C8 N1
C 0.708596 0.400987 -0.641566
C -0.845737 -1.310167 0.474093
C 1.363698 -0.528810 1.686899
C -0.269901 1.163261 0.171530
C -1.960291 -0.546918 -0.334329
C -1.742131 1.007026 -0.032909
C 1.854707 0.862982 -1.378767
N 0.820755 0.020759 -1.986695
C 0.317544 -0.256086 0.589494
H -1.293763 -1.536313 1.434671
H -1.794907 -0.727152 -1.401891
H -2.989195 -0.854037 -0.071174
H -2.159353 1.628425 -0.824438
H 0.094082 2.108288 0.660044
H 1.070790 -0.148563 2.644530
H 2.406701 -0.165809 1.373728
H -0.544231 -2.186999 -0.062828
H -2.289144 1.301265 0.863596
H 1.465098 -1.630771 1.735300
H 1.842350 1.826898 -1.793781
H 2.840216 0.530318 -1.119518
H 1.104091 -0.958602 -1.985986