13
H4 C3 N4 O2
N 0.735371 0.171269 2.160321
C 0.383839 -0.644270 1.098369
N -0.797979 -0.576090 -2.038140
C 0.659258 1.418934 1.718212
O -0.701043 -1.895901 -1.357828
C 0.059881 0.206145 -0.163931
N -0.224603 0.059856 -1.437428
N 0.283811 1.432700 0.365505
O 0.429152 -1.826630 1.217363
H -0.013941 2.206436 -0.259204
H -1.152802 -0.832637 -2.910009
H 0.844272 2.376261 2.133894
H -0.505205 -2.096057 -0.527138