19
H10 C7 N2
C -0.455294 -0.828888 -0.790404
C 2.050309 2.062383 0.495595
C -1.411234 0.122720 1.600446
N 1.434426 0.927017 -0.093849
C -1.533249 -1.920791 -0.991252
C -0.481333 -0.069775 0.430055
C 0.502968 0.534305 0.418535
C 0.737660 -0.651635 -1.567782
N 1.659861 0.298611 -1.328122
H 2.510444 1.813562 1.501582
H -1.685680 1.180470 1.685659
H -1.427210 -2.816027 -0.318159
H 1.371884 2.790293 0.810171
H 0.916617 -1.294654 -2.541487
H -0.907228 -0.171672 2.458655
H -1.351407 -2.407969 -2.031795
H -2.277757 -0.429053 1.490366
H 2.824047 2.423664 -0.289843
H -2.477830 -1.562546 -0.938364