13
H5 C3 N5
C 0.691432 -0.584814 1.745759
N -1.385356 0.950778 -0.947483
C -0.586177 0.327373 -1.978777
C -0.569900 0.415202 0.036348
N 1.093633 -1.025778 -0.689798
N 0.232990 -0.188131 -0.900747
N 0.565337 -0.629487 2.990025
N -0.348403 0.210464 1.303364
H -1.642701 1.983034 -1.020641
H 0.030967 1.102047 -2.651049
H 1.459552 -1.012890 3.459919
H 1.577130 -1.166538 1.320687
H -1.118485 -0.381245 -2.667634