25
H16 C9
C -0.884776 1.145106 -1.479562
C -0.117705 -0.446482 -0.160756
C -0.704796 -0.335255 -1.593516
C 2.260972 -0.865645 0.756531
C -2.258033 0.620966 0.737031
C -0.809469 0.917924 0.176649
C 1.972849 -1.783842 -0.290188
C 0.063917 1.848409 0.942139
C 0.734499 -1.499324 0.428297
H 0.086597 1.575017 2.012344
H -2.621040 -0.338077 0.363238
H -1.649108 -0.941924 -1.759699
H 2.421084 -2.801026 -0.264034
H -0.114900 1.696186 -1.849285
H 2.787034 -1.121837 1.672097
H -0.043182 -0.538507 -2.369388
H -2.927487 1.374818 0.518240
H 2.541604 0.152963 0.457310
H 0.055736 -2.520498 0.061103
H 2.144109 -1.446788 -1.365855
H 1.055594 1.969449 0.553691
H 0.420327 -1.642982 1.530384
H -0.411424 2.914282 0.936343
H -1.841359 1.588329 -1.794039
H -2.161091 0.478737 1.780926