16
H7 C4 N3 O2
C -1.597793 -0.115201 -0.423089
O -1.933477 -1.189020 -1.041205
C -0.554370 1.695915 0.283886
C 1.110681 -0.306643 0.353285
O 0.688140 -1.755676 0.198379
N -1.814268 1.918719 0.276657
C 1.944079 -1.559108 -0.173172
N -0.309859 0.364871 0.000498
N -2.519492 0.770895 -0.208798
H 2.181759 -1.682187 -1.194139
H -2.244337 2.606683 0.633945
H 2.796153 -1.762472 0.563440
H -1.081537 -1.691468 -0.985168
H 0.239547 2.358657 0.518136
H 1.287784 -0.125524 1.397720
H 1.806981 0.471564 -0.200371