17
H8 C5 N2 O2
C -1.348740 -0.159563 0.603700
C -0.440407 1.398291 0.561526
C 0.536878 0.430996 -1.525653
O -0.795506 2.589320 -0.148731
C 0.558343 -2.072790 0.415300
O 0.903670 -0.732392 -2.037370
N -2.516527 -0.509305 0.417336
C 0.126544 -0.631439 0.699582
N 0.582275 0.571412 0.047899
H 0.116088 -2.709356 1.206013
H 0.162681 -2.335801 -0.493243
H 1.640199 -2.151380 0.384918
H -0.586437 0.724504 -1.822455
H 0.385105 -0.485998 1.845124
H 0.042005 3.167392 -0.044215
H 1.095439 1.299053 -1.737415
H -0.461634 1.607046 1.627709