20
H11 C6 N1 O2
C -1.836582 -1.367658 -0.022899
C 0.081360 -1.111079 1.560205
C 0.644755 0.549231 -0.366833
O 0.872005 0.316137 -1.844263
C -0.200293 1.725972 -0.374096
O 1.396948 2.618200 -0.732386
N -0.707896 -1.971394 0.659995
C 0.900369 -0.608352 0.426749
C 1.647376 1.284317 -0.987541
H 1.710553 -1.186675 0.145379
H -0.469289 2.056459 0.602875
H -0.572199 -0.371179 1.932310
H -0.832054 1.884642 -1.209249
H 1.151764 3.207099 -1.361944
H -2.594826 -1.249192 0.738430
H -0.729622 -2.895865 1.059111
H 0.702804 -1.449562 2.323167
H 2.678824 0.926470 -1.202520
H -2.172450 -1.966964 -0.801537
H -1.671545 -0.390579 -0.544952