15
H7 C5 N1 O2
O 0.260138 -0.144689 2.133605
C 0.112849 -0.033784 -0.246865
C 0.886070 -0.197169 -1.587229
C 0.901790 -0.099511 0.958158
N -1.097549 0.146027 2.295520
C -1.252363 0.226431 -0.177823
C -1.680342 0.318053 1.211766
O 2.200558 -0.346043 1.079663
H -1.515942 1.259540 -0.638251
H 0.409879 -1.108026 -2.144742
H 2.704139 -0.238044 0.246438
H -1.876470 -0.511687 -0.770123
H 1.962560 -0.414850 -1.534564
H -2.778204 0.529597 1.462492
H 0.762901 0.614150 -2.288041