25
H16 C8 O1
C 2.684667 2.822930 0.167218
C -0.432079 -3.083132 -1.131740
C -0.146504 -0.578472 0.328179
C -0.663890 0.325836 1.461373
O 1.801037 1.763756 0.376954
C 0.495889 2.126593 0.080637
C -0.493741 0.983966 0.071988
C -2.053596 -1.939536 -0.237005
C -0.841859 -1.617632 -0.716735
H 3.677097 2.496208 0.405221
H -2.692063 -2.639144 -0.123003
H -0.829134 -1.016092 -1.686573
H 0.875520 -0.776455 0.421125
H -0.974015 -2.301195 1.197027
H -1.624600 0.330329 1.838677
H 2.660369 3.128024 -0.862927
H 0.169801 2.845843 0.889519
H 0.714130 -3.129287 -0.862338
H 0.477667 2.706726 -0.853212
H -0.836410 -3.963192 -0.623765
H -1.287808 1.144777 -0.609212
H 2.412813 3.697054 0.849381
H -0.547853 -3.180629 -2.211071
H -2.610707 -0.773091 -0.364361
H 0.065249 0.625800 2.194643