19
H10 C8 O1
C -0.733522 -1.681163 1.049160
C -1.705480 -0.512367 1.294224
C 1.880480 0.890180 -3.423426
C 0.397174 -0.574258 1.054020
O 0.618558 -0.433949 -1.497744
C -0.549752 0.287779 1.799505
C 0.714510 0.231631 -0.272952
C 1.302906 0.370300 -2.467179
C -0.083535 1.398689 -0.515292
H -0.743553 -2.427799 1.776655
H 1.776878 0.588368 -0.158789
H 0.117284 2.398232 -0.185114
H 1.329221 -0.871298 1.540655
H -2.491409 -0.498770 2.174572
H 2.454174 1.256316 -4.342089
H -1.016421 1.236119 -1.040268
H -0.741583 -2.216234 0.075794
H -2.202748 -0.131630 0.428460
H -0.323171 0.689838 2.709810