17
H8 C7 O2
O -1.146940 -1.391637 -0.149639
C 0.396603 0.038773 0.418849
C 0.302765 -1.501530 -0.016697
C -1.169545 -0.231527 0.533711
C -0.890733 0.377638 -2.256197
O -1.390478 1.188031 -2.800046
C -0.599279 1.083328 -0.084035
C -0.129478 0.659418 -1.067415
C 1.491630 0.551737 1.298408
H -0.981144 -0.761731 -2.482902
H 1.592021 -0.153460 2.244482
H 2.436563 0.591127 0.863308
H 1.286558 1.566552 1.800182
H 0.564416 -2.131038 0.867422
H -0.722237 2.052943 0.342393
H 0.876708 -1.847069 -0.818057
H -1.917413 -0.091555 1.306205