16
H8 C5 N2 O1
O -0.557986 0.357514 3.334340
C -0.949215 0.102439 -1.276760
C 0.696430 -1.249985 -0.660259
C 0.053192 0.486608 1.097062
N 0.203655 -0.568646 -1.877540
C -0.489790 -0.445471 0.105287
C -0.254501 0.414878 2.377950
N 0.863278 1.581261 0.838673
H 0.252669 -1.071890 -2.686510
H 0.553248 -2.333917 -0.573095
H -1.915187 -0.309413 -1.660988
H 1.754190 -0.912575 -0.395524
H -1.328930 -1.151465 0.562169
H 0.363526 2.445372 0.851893
H -0.976055 1.144750 -1.363089
H 1.731455 1.510571 1.326377