18
H9 C6 N1 O2
C -0.438354 -0.710247 1.909854
C -0.340272 0.629448 -0.603378
N 2.031202 -0.994383 0.065513
O 0.878684 -1.407002 1.975617
C 1.223931 -0.724658 0.900118
C 0.590628 1.376407 -1.418415
O -0.568738 2.099815 -0.987501
C -1.399441 -0.226266 -1.160861
C 0.089555 0.321544 0.859900
H 2.569423 -1.765559 0.281075
H -0.700192 -0.288136 2.873056
H -1.668291 0.126469 -2.170758
H 0.625996 1.221588 -2.462164
H -1.302597 -1.358106 1.490018
H 0.335570 1.304006 1.346673
H 1.522018 1.921152 -1.049756
H -1.115951 -1.254805 -1.274093
H -2.333169 -0.271321 -0.574935