13
H4 C4 N2 O3
N -1.612721 1.373224 -1.026924
C -1.991164 0.311727 -1.607099
C 0.824353 0.383483 0.929655
C 1.316811 -1.001753 0.754407
C -0.438051 -0.570182 -0.455556
O -1.417586 -0.814396 -1.420516
N 0.316456 -1.536042 -0.075347
O 1.157650 1.193852 1.857461
O -0.165516 0.771786 -0.039869
H 1.106986 2.159699 1.423252
H -2.866450 0.271938 -2.347021
H 1.445805 -1.471399 1.740203
H 2.323410 -1.071976 0.267337