21
H12 C8 O1
O 1.558124 0.454552 -1.230034
C -0.717228 1.072094 -0.800187
C -0.025335 -0.875745 0.435563
C 0.445628 1.204535 -1.719999
C 1.355395 -0.286479 -0.025106
C -0.318678 1.565854 0.606092
C -1.062391 -0.482094 -0.522483
C 0.513914 0.406020 1.037093
C -0.022201 -2.135475 1.245355
H 2.170397 -0.975989 0.179129
H 0.782550 -2.199928 1.959097
H -0.965606 -2.189908 1.772050
H 0.928542 0.382211 2.096889
H 0.640991 2.276796 -1.794682
H 0.098960 -3.059184 0.618665
H -0.997929 -1.138131 -1.568881
H 0.197720 2.498721 0.534658
H 0.306040 0.844082 -2.698906
H -1.194198 1.734246 1.248736
H -1.641194 1.514133 -1.206879
H -2.053515 -0.610287 -0.166169