25
H16 C8 O1
C -1.051927 -0.931665 -0.199245
C -0.203827 -1.719262 -1.363728
C 0.306349 1.379817 -1.361688
C -0.712660 2.085266 0.909106
O 1.140479 -1.479793 0.279281
C -0.034981 -0.345153 0.728759
C -0.028352 -0.527287 2.157971
C 1.317504 -1.500021 -0.997943
C 0.288634 1.098436 0.195414
H -0.995599 -0.855725 2.532150
H 0.313480 0.368244 2.680127
H 2.000150 -0.511645 -0.945344
H 0.653568 -1.389837 2.343232
H 1.320372 1.299630 0.577824
H -0.131969 2.902083 1.330967
H -0.499501 -2.756817 -1.371431
H -1.357025 2.484648 0.161669
H -1.833729 -0.272868 -0.509399
H 0.580120 2.448669 -1.500699
H -1.631567 -1.712384 0.389885
H 0.957212 0.671182 -2.084148
H 1.951032 -2.281362 -1.312711
H -1.294718 1.575195 1.643466
H -0.397633 -1.281802 -2.386282
H -0.655434 1.252453 -1.897241