21
H12 C8 O1
O 0.886853 -1.866242 0.486565
C -0.580779 -0.493093 -0.567074
C 0.634557 -0.928655 1.567087
C 0.821029 -0.088566 -0.313219
C -0.773908 1.364204 1.233692
C -1.496100 -0.347934 -1.747911
C 1.919691 0.798992 -0.875437
C -0.220118 0.120845 0.749080
C -0.372965 -1.724390 0.099616
H -1.204943 -1.010388 -2.638192
H -1.634633 1.158345 1.838817
H -1.441364 0.689680 -2.240809
H 1.571769 1.390369 -1.766806
H 2.778191 0.268528 -1.090095
H -1.180452 2.027472 0.474651
H -0.048051 2.007782 1.823525
H -2.560272 -0.491264 -1.590041
H 1.651393 -0.542374 1.971271
H -1.093464 -2.566404 0.244711
H 0.144582 -1.398541 2.442773
H 2.198996 1.631623 -0.102205