20
H11 C8 N1
C 1.223801 -0.906546 -0.722149
C -0.534723 1.903046 -0.699528
C -1.059493 -1.246388 0.673366
C 0.229334 -0.406796 0.312103
C -1.802600 -0.351628 -0.326766
C 1.139475 -0.087567 1.681858
C 0.390435 2.437587 -1.551397
N 1.121591 2.961020 -2.356451
C -0.642955 0.594286 -0.218339
H 1.527165 -1.948690 -0.608182
H -2.828918 -0.010300 -0.050256
H -1.304044 2.660951 -0.462255
H 2.177134 -0.319185 -0.799496
H 0.486187 0.244866 2.485936
H -1.418777 -1.031618 1.693377
H -1.888550 -0.869160 -1.348528
H 1.847389 0.590646 1.491932
H 1.542558 -1.084228 2.038177
H 0.803350 -0.830758 -1.756704
H -1.008326 -2.299556 0.523331