16
H7 C4 N3 O2
N 0.546056 1.484560 0.611898
C 0.789994 0.562613 1.690272
C -0.275133 -0.855530 -2.091103
N 0.394018 0.216264 -2.012044
C 0.171223 0.501843 -0.608804
O -0.881083 -1.370623 -1.041883
N -0.347836 -0.505383 -0.056069
C -0.322420 -0.535728 1.386685
O -0.428438 -1.323401 -3.352164
H -1.307394 -0.312680 1.854084
H -1.390406 -1.622263 -3.423400
H 1.137778 2.129314 0.179911
H 0.537779 1.000145 2.719570
H 1.748810 0.131760 1.579517
H -0.369418 2.037045 0.714665
H -0.003514 -1.537943 1.848844