23
H14 C8 O1
C -1.872274 -0.101736 -0.491026
C 0.319220 1.267696 0.184583
C 0.811219 0.603592 1.431771
C 0.361755 0.213204 -1.643096
C 0.698465 -1.115499 -2.395080
C 0.002842 0.585135 2.709365
C 0.585617 -0.694146 0.633134
C -0.402440 0.042915 -0.364492
O 1.350790 1.087943 -0.862069
H -0.124836 2.287964 0.180131
H 0.109426 1.552016 3.250907
H 1.867003 0.917652 1.598360
H -2.179640 -0.635181 -1.390736
H 1.532987 -1.198497 0.296284
H -0.962931 0.240550 2.517274
H -0.182149 -1.313227 -3.008662
H 0.473060 -0.177193 3.425129
H 0.101047 -1.599056 1.135413
H -2.276642 -0.692976 0.334708
H -0.096992 0.918413 -2.325470
H 0.776644 -2.034440 -1.764995
H -2.440899 0.786004 -0.421390
H 1.548736 -0.941160 -3.030003