21
H12 C7 O2
C -0.877152 -1.640138 -0.559422
O -0.801627 -0.291063 -1.214375
C -0.863926 0.750792 -0.238942
C 0.845091 2.436866 0.468483
C 0.110606 -0.552186 1.190849
C -0.131318 1.966827 -0.423170
C 1.734696 2.948847 1.207902
C 0.150549 -2.651343 -0.988508
O -0.840996 -1.452913 0.817093
H -0.556358 2.631481 -1.196002
H 1.155403 -2.474223 -0.554425
H -0.051083 -3.615365 -0.763663
H 0.750399 1.457633 -1.336658
H 2.577198 3.408242 1.788470
H -0.271257 0.146474 1.899558
H -1.821132 -1.964486 -0.871460
H -1.885413 0.612687 0.037190
H 0.738111 -1.428620 1.859555
H -1.258124 2.456477 0.397951
H 0.289823 -2.578967 -2.145935
H 1.006521 -0.167042 0.625522