20
H11 C7 N1 O1
N -0.429370 -0.858335 -2.212587
C 0.290252 1.157126 0.671812
O -1.668265 -0.262075 -0.498041
C -0.326929 0.075845 -0.145554
C -1.201235 0.180729 2.455753
C -0.182961 -0.087354 1.420061
C 0.417475 -0.416026 -1.214736
C 1.937972 -0.817568 -1.112999
C -0.979387 0.288763 -1.656545
H -0.761222 0.582864 3.307653
H 0.502747 -0.867185 1.675496
H 1.356734 1.303282 0.722538
H -0.227652 -0.831258 -3.192622
H -1.467032 1.056523 -2.247579
H 2.144471 -1.504624 -2.028099
H -1.795491 -0.723785 2.732980
H -0.340142 2.060853 0.718392
H -2.007849 0.879430 2.038221
H 2.575916 0.063511 -1.228406
H 2.161982 -1.280717 -0.205736