22
H13 C7 N1 O1
C 0.023174 1.366016 0.526326
C 0.464936 0.122197 0.020247
N 0.581417 0.297353 -1.353498
C 0.187612 -1.127679 -0.202084
C 1.431670 0.245276 0.959963
C -0.158730 3.349478 1.600299
O 0.580235 2.468314 0.755334
C -1.189874 -2.714698 -1.390182
C 0.210437 -2.211155 -1.215156
H 0.928251 -2.964407 -0.856022
H 1.426137 0.232482 2.011920
H -1.887168 -1.897388 -1.728752
H -0.352271 0.478680 -1.726177
H -1.126347 3.663262 1.148823
H 0.414720 4.214251 1.834202
H 0.632174 -1.878265 -2.143840
H -1.568815 -3.167240 -0.486182
H -0.238658 -1.624367 0.883942
H -1.113085 1.430202 0.370127
H 2.404039 0.306230 0.518124
H -1.273500 -3.444669 -2.091529
H -0.376349 2.856145 2.564158