15
H6 C7 O2
C -1.114364 1.032149 0.320335
C -1.390293 -0.068613 2.694170
C 0.172446 1.650025 -0.098730
C 1.522543 -1.440739 -1.301238
O 1.863610 -0.600123 -0.321609
C 0.450978 -0.850457 -0.490876
C -0.293120 0.481085 -0.825286
C -1.255198 0.379359 1.594518
O 0.792540 2.574497 -0.048649
H -1.433787 -0.331028 3.708566
H -2.009397 1.621605 0.025071
H 1.598492 -1.095176 -2.319914
H -0.598248 0.548276 -1.873316
H 1.845587 -2.396416 -1.119282
H -0.151787 -1.504437 0.056254