19
H10 C6 N2 O1
C 0.956083 -0.496728 -1.036639
C -1.040926 1.233412 -0.845473
C -1.532859 -0.343977 0.946306
C 0.469269 1.023156 -0.979868
N 2.692818 0.175162 2.029435
N 0.392730 -1.305241 -0.001587
C 1.539409 -0.202423 1.649063
O -1.589182 0.986299 0.496836
C 0.139487 -0.745072 1.263667
H 1.997124 -0.493172 -1.044032
H 0.584080 -0.925094 -1.928436
H -1.365956 2.159744 -1.110245
H 0.786401 1.473764 -1.963017
H -1.977482 -0.999057 0.119343
H 0.828769 -2.174507 0.072484
H -1.534626 0.546317 -1.553023
H 0.897860 1.607077 -0.202007
H -2.175396 -0.370722 1.822426
H -0.067592 -1.148919 2.264730