18
H9 C5 N1 O3
O 1.346090 -1.110479 2.411420
N 0.387754 -0.845479 0.240244
C 0.746820 -0.352755 -0.974795
C -0.285653 0.554573 -1.550354
C -1.088118 -0.674566 0.436359
O 0.060294 1.831345 -2.032095
C 1.452841 -0.483992 1.216068
O -1.246086 -0.468793 1.759079
C -1.457907 0.589778 -0.446697
H 1.581276 -0.754424 -1.491693
H 1.375186 0.709371 1.223510
H -1.391675 1.458376 0.129308
H 0.499098 2.289825 -1.163368
H -2.417514 0.479998 -0.927569
H -1.707695 -1.542465 0.163257
H -0.640207 0.106430 -2.527309
H 0.344860 -1.141301 2.699732
H 2.440628 -0.645440 0.834910