13
H7 C4 N1 O1
C 0.477689 -1.329699 -1.331456
C 0.423220 -2.849087 0.599049
C 1.187431 0.936228 0.605109
C -1.638718 1.705606 1.912546
H -0.060600 -1.857168 -0.977896
H -0.985960 -0.528527 1.771809
H -0.574290 -0.663542 -1.636111
H -1.363922 1.292770 1.689767
H 0.837399 0.833170 1.127490
H 2.344835 -0.249289 0.467239
H -0.188888 1.522982 -0.771711
N -0.205269 1.619673 -0.875064
O -0.252939 -0.433128 -2.580767