13
H7 C4 N1 O1
C -0.487911 2.580953 -1.453482
C 0.485056 -1.442395 0.327193
C -0.787968 1.434040 -0.741353
C 0.276145 -0.952488 0.498868
H 0.793986 -1.873154 0.570865
H 0.139218 1.495765 -0.655417
H -0.403632 0.389447 1.858008
H -0.382573 -0.819250 1.289432
H 1.081865 -2.503979 -0.168641
H -1.331235 1.561379 -0.829596
H 1.614205 -1.132983 0.338172
N -0.782966 -0.416580 -2.095293
O -0.214195 1.679236 1.061251