13
H7 C4 N1 O1
C -0.049668 1.279485 -1.041357
C 0.369687 0.770038 1.904333
C 0.597055 -0.543227 1.767510
C -1.386806 0.760480 -0.917816
H -1.263521 1.555461 -2.201157
H 1.989403 -1.600388 -0.032802
H -0.241823 -0.837185 -0.518994
H 0.416996 0.469548 -0.842561
H -0.164950 0.712989 1.168501
H 0.774827 -0.374119 1.224187
H 0.277767 -2.212242 1.070728
N 0.190883 -1.039341 -0.162906
O -1.509842 1.058490 -1.417664