23
H14 C9
C 0.762627 -1.454344 0.684332
C -0.534530 1.765687 -1.610972
C -0.819997 0.243038 -1.826332
C 0.311226 0.489992 0.305682
C 0.649482 -1.956686 2.069957
C 0.537042 1.813899 -0.413199
C -0.793244 -0.508640 -0.508996
C -1.155585 0.238146 0.703830
C 1.410729 -0.225751 0.675163
H -1.906464 0.982391 0.536587
H -1.200795 -1.458376 -0.685223
H 0.036020 -2.867007 2.064560
H -1.772262 0.195947 -2.353404
H -1.460883 -0.406382 1.604098
H 2.351440 -0.041204 0.619021
H -1.403839 2.285942 -1.229293
H 1.647062 -2.301347 2.370074
H -0.143639 2.209704 -2.475498
H -0.014698 -0.219774 -2.553512
H 0.322928 -1.284176 2.735527
H 0.415318 2.700094 0.240790
H 1.190476 -2.070478 -0.104100
H 1.571531 1.869342 -0.849079