17
H8 C5 N2 O2
C 1.900269 -1.370467 0.900281
C -0.304831 1.114462 0.425615
N -1.487166 -0.364576 -0.754055
C 0.861884 -1.225196 -0.231748
O 0.416425 1.691584 1.221671
N -1.558308 3.129921 -0.417835
C -0.410691 -0.470301 0.175549
C -1.377018 1.888118 -0.467556
O -1.900517 0.914731 -1.272002
H 1.517802 -2.045202 1.719187
H 2.115373 -0.394529 1.417056
H 0.549257 -2.112536 -0.612962
H -2.224275 3.387218 -1.163473
H -1.469807 -0.985612 -1.558485
H -0.741164 -0.900582 1.078515
H 2.835451 -1.708284 0.545876
H 1.277286 -0.548755 -1.005635