15
H7 C5 N1 O2
N -0.431778 -0.718567 1.960152
C -0.078396 0.900721 0.456398
O 1.240596 0.150151 -2.078600
C -0.317011 -1.337180 0.772119
C -0.279046 0.680145 1.809675
C -0.081057 -0.350387 -0.150959
O 0.137096 2.110146 -0.065240
C 0.078366 -0.561506 -1.654626
H -0.829139 -0.192870 -2.204881
H -0.409860 -2.354303 0.628669
H -0.272155 1.369381 2.662921
H -0.591810 -1.157628 2.837638
H 0.382447 1.962100 -1.016599
H 0.238222 -1.526334 -1.930268
H 1.213546 1.026139 -2.026375