18
H9 C6 N1 O2
C -0.135356 -0.265945 -0.523287
O -1.122741 -2.673583 -0.631857
C -1.062340 0.749508 -0.696619
C -0.173058 -1.893072 -0.639508
N 1.158150 -1.860091 -0.759846
C -0.852121 0.293637 0.682227
C 1.357492 -0.441406 -0.980248
O -0.665845 2.096207 -0.859393
C 0.121660 0.776067 1.750380
H 1.856028 -2.501741 -0.412390
H 2.018885 0.035072 -0.220593
H -0.559117 1.054986 2.597015
H 0.883302 0.161819 2.022910
H -1.661912 -0.357809 1.023034
H 1.563948 -0.098206 -1.927582
H -1.868185 0.505279 -1.351079
H 0.550250 1.785297 1.432881
H -1.409088 2.633990 -0.506062