14
H6 C6 O2
O -1.350577 2.035765 1.367916
C -1.018286 -0.457029 -1.184020
C -1.653112 1.125953 0.763357
O -1.605835 0.287400 -1.933122
C 2.485108 -1.484492 0.057755
C 1.719553 -0.589987 0.105160
C -0.640362 0.099212 0.225601
C 0.861345 0.548834 0.180993
H -0.737657 -0.740150 0.924541
H 1.020642 1.174667 -0.725316
H -0.591503 -1.454564 -1.406639
H -2.653963 0.753181 0.560333
H 3.112260 -2.350296 0.008405
H 1.052437 1.051487 1.055042