21
H12 C8 O1
C 1.026215 -0.232049 -0.571533
C -0.767340 1.040991 0.419383
C -1.467898 2.277234 0.474690
C -1.483929 -0.237152 0.725156
C 2.051227 -0.128769 -1.676379
C 0.514722 -1.326426 -0.185886
C -0.451348 -1.309871 1.046458
O -1.017663 -2.609476 1.348156
C 0.656038 1.180985 0.152018
H -1.160532 -3.000188 0.461299
H -1.870853 2.558455 -0.501200
H 0.751846 -2.303929 -0.550532
H -2.265205 -0.037727 1.407515
H 0.004169 -1.088401 1.936815
H 1.662798 0.546245 -2.535828
H -1.487711 2.847785 1.257101
H -2.027447 -0.538907 -0.208701
H 0.899943 1.988015 -0.458848
H 2.180495 -1.075142 -2.171645
H 3.015238 0.283343 -1.425818
H 1.237229 1.164978 1.057773