20
H11 C6 N3
C -0.718082 2.096499 -0.774777
C -1.404289 0.697141 -0.887253
C 0.710077 -1.983253 0.464091
N 0.802764 -0.705214 -1.168567
C -0.237313 -1.117122 0.290774
C 0.970431 -3.070659 1.553982
N 1.456716 -1.731985 -0.592427
C -0.093051 2.516767 0.501490
N -0.386569 -0.354290 -0.422035
H -1.506854 2.743967 -1.196308
H 1.497166 -2.595311 2.328498
H 1.487170 -3.856369 1.105960
H 0.186347 3.543606 0.440764
H -0.032901 -3.416415 1.957854
H 1.066146 -0.310264 -2.094483
H -2.138877 0.626228 -0.085151
H 0.824998 1.906799 0.713148
H 0.083999 2.172597 -1.598408
H -0.794347 2.371985 1.332719
H -1.773552 0.465295 -1.869864