16
H9 C6 N1
C -0.095554 -1.210684 0.423615
C 0.234537 1.091966 1.322578
C 1.710272 0.483631 -0.470441
C -0.952212 0.391849 -0.731103
C 0.361861 0.272453 0.154668
N 0.155194 1.851585 2.259381
C -1.569773 -0.816902 0.019995
H -2.049155 -1.503290 -0.621455
H -1.528528 1.392561 -0.674008
H -2.164825 -0.521326 0.785608
H -0.710925 0.208788 -1.746625
H 1.897836 1.585819 -0.736848
H 2.500118 0.206780 0.139285
H 1.708145 -0.078547 -1.419549
H 0.430607 -1.834906 -0.246040
H 0.072380 -1.519770 1.540903