17
H8 C5 N2 O2
C -0.242511 -0.571547 -1.451292
N -0.757812 -1.055071 -0.018627
C 1.100263 -0.920401 -1.822507
O 0.124865 -0.097166 2.851210
O -0.242874 1.918181 -1.555898
C 0.452593 0.546279 1.511071
N 2.228671 -1.210614 -2.023226
C -0.669715 0.326111 0.507560
C -0.308304 0.785790 -0.906485
H 1.463247 0.106612 1.082982
H -0.245725 -1.684225 0.370663
H -0.885416 -0.631688 -2.318190
H 0.575233 1.652182 1.726468
H -1.795792 -1.291071 -0.234665
H -1.525259 0.769409 0.935099
H 0.174147 -0.985562 2.691746
H 0.554380 2.342809 -1.345971