24
H15 C7 N1 O1
C 1.539835 -0.739773 -1.364361
C -0.541948 0.252978 2.046206
C -0.810417 -0.450850 0.692606
C 0.012752 0.622044 -2.908593
C 0.116044 -0.330779 -1.698059
C 0.866023 0.072929 2.563402
N -1.986984 -0.124608 -0.189569
C -0.540636 0.299270 -0.478360
O -1.527092 -0.404036 2.881788
H -0.346291 1.331242 -0.393976
H 1.611629 -1.393039 -0.511101
H -1.927770 0.116327 3.457899
H 2.111997 0.166384 -1.179740
H 0.496503 0.137209 -3.832805
H 0.601356 1.488772 -2.750454
H 0.983366 0.573599 3.503113
H -0.601447 -1.494239 0.726617
H -1.042803 0.931503 -3.115355
H 1.135433 -0.940585 2.588046
H 1.542203 0.605197 1.819769
H -0.772823 1.300964 1.993756
H 1.974331 -1.231956 -2.268999
H -0.445479 -1.261635 -1.921626
H -2.447799 0.473064 0.339818