22
H13 C7 N1 O1
C -1.399110 -0.751246 -0.462981
C 0.100100 -0.623168 -0.178139
N -0.769862 0.569006 3.021708
C 0.466798 -1.855885 0.791827
C -0.329727 0.608556 2.054606
C 0.351385 0.656470 0.764893
C 0.923505 -0.635774 -1.373216
O -0.511096 1.927205 -1.138467
C 0.020982 2.038864 0.135906
H -0.788550 2.805284 -1.453741
H -0.623632 2.553003 0.837389
H 1.991556 -0.559301 -1.152429
H -1.686412 0.103372 -1.144693
H 1.581576 -1.766177 1.027832
H 0.807773 -1.498145 -1.959291
H 0.431142 -2.773634 0.181687
H 0.733119 0.296978 -1.989197
H 1.486563 0.654345 0.900160
H 0.906960 2.662043 0.063360
H -1.540621 -1.704106 -1.005000
H -0.112818 -1.924548 1.630413
H -2.039619 -0.783159 0.447356