19
H10 C7 O2
O 1.340901 -0.329145 2.266747
C 0.729204 -0.135230 -0.808392
C -0.094654 0.314468 0.420255
C -1.004847 1.027234 -0.511472
C -1.260371 -0.324101 -0.252015
C -0.354598 -1.267264 -0.997847
C 0.314726 0.599585 1.897024
C 0.117454 1.127526 -1.605723
O -0.118136 -2.513876 -0.350776
H 2.176283 -0.045661 1.895496
H 0.813315 1.934265 -1.420068
H -2.282538 -0.712931 0.230362
H 1.785852 -0.407804 -0.902621
H -0.638114 -1.510027 -2.042950
H 0.635076 1.552752 2.026008
H 0.144783 -2.363618 0.497420
H -1.703238 1.767210 -0.259166
H -0.493105 0.377542 2.560865
H -0.107987 0.909078 -2.643151