15
H6 C4 N4 O1
N -0.094096 -0.524378 0.286875
C -0.223176 0.553211 -0.239539
C -2.243213 0.270572 0.425880
O -1.392085 1.055793 -0.500728
C 1.073864 0.260403 -0.375460
N 3.086654 0.668615 -0.705402
C -1.413082 -1.049051 0.692984
N 1.120775 -0.857054 0.283776
N 1.896614 0.941236 -0.955120
H -3.218528 0.129257 -0.125811
H 3.520597 -0.109413 -0.488416
H -2.444704 0.828823 1.282533
H 3.726895 1.090669 -1.399215
H -1.591820 -1.395712 1.722681
H -1.804684 -1.862970 0.094950