20
H11 C6 N1 O2
C -1.235542 -0.130300 -0.580219
C 3.114536 -0.170133 0.561669
O 4.022972 0.669724 1.195527
C -3.481160 0.508064 -1.641051
C 1.677500 0.140286 1.034253
N -0.584104 -0.560452 0.645889
C -2.713818 -0.175100 -0.492762
C 0.627584 -0.871746 0.446153
O -0.567186 0.168816 -1.548535
H -4.096958 1.337784 -1.197425
H -2.731844 0.843925 -2.398515
H 1.325460 1.122477 0.734764
H 1.011669 -1.725139 -0.034337
H -3.158961 -0.585987 0.347393
H 1.607947 -0.040723 2.212903
H 3.158020 -0.038671 -0.511955
H 3.834266 1.570132 1.012484
H -4.096807 -0.176521 -2.092854
H -0.997277 -0.660759 1.516966
H 3.283725 -1.225696 0.789663