19
H11 C6 N1 O1
C -0.567543 1.601464 0.169879
C 2.888999 -0.995398 -0.573007
C -2.865522 0.749725 -0.269217
C 0.118526 -0.739744 1.086843
N -1.385178 0.622736 -0.566904
O 1.860709 -0.116736 -0.654613
C -0.405364 0.190300 0.117048
C 0.644703 -0.699768 -0.291749
H -3.354351 0.638865 -1.325509
H -0.434320 -1.554482 1.504010
H -3.282358 -0.002475 0.293927
H 2.808948 -1.893834 -1.184501
H 0.367073 -1.633135 -0.865095
H 0.787689 -0.277369 1.957304
H -3.009738 1.684516 0.093972
H -0.023862 2.274945 -0.469772
H 2.979630 -1.400507 0.593744
H -0.908237 2.044261 1.164673
H 3.780225 -0.493395 -0.781075