18
H9 C6 N1 O2
C -0.026264 0.216238 -0.569699
C 0.078303 0.860292 1.605819
N -0.330597 -1.229422 -2.266704
C 1.241426 -0.339198 -0.008617
O -0.871895 0.831100 2.635694
C -1.216634 -0.536727 -1.371386
C 0.819214 -0.414453 1.498044
C -0.218048 0.233130 -2.109664
O -0.565558 1.161940 0.348571
H 0.749769 1.723544 1.778518
H -2.222806 -0.475738 -1.185010
H -0.197377 1.026370 -2.833878
H 0.154390 -1.245212 1.745030
H 1.441340 -1.377732 -0.412993
H 2.079543 0.249082 -0.138015
H 1.691752 -0.392357 2.181876
H -1.701650 1.119761 2.208850
H -0.904902 -1.410620 -3.106432