16
H7 C7 N1 O1
O -1.288383 -2.114807 -1.430608
C -1.143018 -0.336122 0.283884
C -0.681327 -0.978615 -0.914385
C 0.100417 0.535400 0.404717
C 0.688646 -0.475740 -1.188860
N 0.089299 0.844104 -1.047508
C 0.190738 1.622296 1.340739
C 0.382022 2.514951 2.151638
C 1.316414 -0.334801 0.142580
H -1.484560 -1.970706 -2.349358
H 1.364865 -1.264951 0.769740
H 0.448046 3.240701 2.787844
H -2.072179 0.296163 0.090873
H 2.247262 0.193669 0.031211
H 1.195137 -0.736253 -2.185637
H -1.353370 -1.035262 1.113130