15
H8 C5 N2
C 0.855960 -1.569256 0.643486
C 0.965448 -0.126711 -1.604876
N -0.478963 0.532311 -0.078049
C -0.987319 0.885324 1.193450
C -0.779745 1.093973 -1.319882
N 0.180689 0.831384 -2.178087
C 0.490684 -0.398174 -0.333655
H -0.433919 1.636487 1.700356
H -1.130364 0.037741 1.816147
H -0.028346 -2.170514 0.856835
H 1.871264 -0.531304 -2.032967
H -1.884717 1.370093 1.077443
H 1.662696 -2.148283 0.141148
H 1.284191 -1.203155 1.589898
H -1.587540 1.760047 -1.471253