16
H7 C4 N3 O2
N 1.020314 0.236812 -0.511047
C 1.866323 0.508623 0.496976
O -0.981624 -0.131057 -1.455621
N 3.149122 0.857740 0.182184
C -2.186435 -0.686181 0.532700
C -0.275479 -0.082732 -0.223400
N -0.816330 -0.343312 0.791955
C -2.349573 -0.285211 -0.953238
O 3.982633 0.718639 1.072498
H 1.504203 0.360162 1.551240
H 1.462165 0.253365 -1.393981
H 4.678125 0.952819 0.751224
H -2.894849 -1.013139 -1.571229
H -2.947155 -0.184877 1.165066
H -2.849343 0.641295 -1.069406
H -2.362104 -1.802930 0.634115