23
H14 C7 N2
C -1.568177 -2.212824 -0.409321
C -0.148883 -0.479176 -2.558020
C 0.934457 1.587945 2.992162
N 0.416410 0.103600 1.206516
C -1.180285 -0.678334 -0.485173
C 0.988783 1.339463 1.401504
C 0.304922 -0.358142 -0.201242
N -1.299798 -0.262169 -1.915586
C 0.529824 0.534619 -1.492886
H 0.286987 -1.488006 -2.543409
H -0.098207 1.463251 3.309059
H 1.174047 2.602459 3.166558
H 0.323844 2.048748 0.925506
H 1.588508 0.865885 3.459610
H -1.745585 -0.080756 0.094612
H -1.002785 -2.780367 -1.052003
H -0.171642 -0.008996 -3.616603
H 1.034421 -1.116292 -0.249017
H -2.635768 -2.273015 -0.530076
H -1.334476 -2.494898 0.662364
H 1.981923 1.507596 1.087414
H 0.010439 1.489629 -1.509446
H 1.611064 0.689764 -1.742528