18
H10 C6 O2
C 0.510358 -0.834866 0.245704
C 0.156446 1.163535 -0.440936
O -0.357172 2.171943 -1.238282
C 0.453992 1.463773 0.959656
C -0.175273 -2.227832 0.057739
C -0.372642 0.310431 0.651445
C 0.854681 0.011554 -1.068708
O -1.675989 0.124786 0.973171
H -0.925337 2.731746 -0.739238
H -0.627159 -2.578161 0.960081
H 1.322482 -1.016594 0.928404
H 0.330073 -0.323435 -1.974864
H -0.980037 -2.122466 -0.672495
H -2.207635 0.183463 0.142997
H -0.171110 2.272167 1.471815
H 1.441847 1.447045 1.332355
H 0.518365 -2.940847 -0.294033
H 1.904092 0.163770 -1.294783