13
H4 C5 N1 O2 F1
O 2.158782 0.892428 -2.169117
N 1.470667 -0.289469 -0.302730
C 0.227756 -1.281947 1.501299
C -0.116032 1.051247 -1.253971
C 0.350632 -0.381266 0.358697
O -1.928528 0.503719 0.243289
C 1.323061 0.642205 -1.360421
F -0.762102 1.876818 -2.121481
C -0.682819 0.398179 -0.213334
H -0.668403 -1.950346 1.421132
H -0.055323 -0.677627 2.468345
H -2.463320 1.045660 -0.287103
H 1.145622 -1.829592 1.715390