19
H10 C7 O2
O 0.359957 1.392190 -1.242162
C -0.155238 -1.212233 -2.787878
C -0.978661 0.025865 1.720396
C 0.892975 0.029462 1.787234
O 0.378924 -1.837838 -3.531975
C -0.459161 1.373039 2.034524
C 0.163318 -1.124116 -1.296277
C -0.322217 0.260230 -0.687485
C -0.113782 0.112608 0.738974
H 1.868043 0.538195 1.398352
H -0.172877 -1.995614 -0.830463
H -1.762129 -0.568597 2.055908
H 1.299144 -1.098688 -1.212025
H 1.243548 1.291964 -1.095000
H -0.476574 1.592954 3.072820
H 1.050702 -0.689936 2.453352
H -1.114208 -0.703376 -2.992534
H -1.361873 0.312103 -0.983559
H -0.339868 2.301797 1.397811