17
H8 C5 N2 O2
C -0.679130 -1.229584 0.092708
C 1.827808 -0.040022 0.300769
O -2.635690 -2.133090 -0.265441
N -1.266207 -2.263942 0.103544
C -1.152335 0.119383 -0.273621
N 0.577388 -0.719374 0.867400
C -0.159299 0.690642 0.746888
C 1.112535 1.420458 0.125330
O 0.913820 1.868033 -1.170959
H -0.528629 1.005522 1.690063
H -0.812442 0.302683 -1.346295
H -2.992189 -2.995475 -0.153872
H 1.699452 1.888618 -1.688399
H 2.666674 -0.014410 1.001958
H -2.176327 0.416731 -0.147869
H 1.529744 2.196306 0.745829
H 2.074799 -0.512462 -0.628032