23
H14 C8 O1
C 0.011630 0.556634 -0.923523
C 1.293833 1.049800 -1.596223
C -0.519155 -0.619247 -1.645592
C 0.297683 -0.061994 0.565064
C 1.409383 -1.008629 0.734446
C -0.873716 -0.240851 1.350464
C -2.220989 0.292834 1.159012
O -1.733078 -1.135340 -1.422495
C 1.546121 0.329733 1.477441
H 2.098051 0.358638 -1.613104
H 1.249974 -1.915335 1.276081
H -0.731620 -0.877253 2.249427
H -0.699376 1.324729 -0.820904
H -1.858913 -1.897127 -1.895500
H -3.008474 -0.428059 1.274961
H 0.027515 -1.109645 -2.279331
H 1.639935 1.981956 -0.990845
H 1.439859 0.307445 2.490267
H 2.176261 1.053922 1.048520
H -2.401857 1.095994 1.971646
H -2.366090 0.735339 0.163592
H 2.169574 -1.183773 -0.080318
H 1.053458 1.390235 -2.493102