15
H6 C6 N2 O1
C -0.123106 0.127287 0.855216
N 1.258569 0.125681 1.308284
C -0.129197 -0.582393 -0.464922
C 1.581426 -0.678236 -0.020820
C 2.080843 0.707033 0.337434
C -1.342256 0.637573 1.307884
O -2.391749 -0.757326 -1.709439
C -1.723694 -0.336965 -0.615077
N -2.298291 0.316892 0.358768
H -1.562078 1.242053 2.212830
H 1.659399 1.561190 -0.203835
H 2.134389 -1.533947 0.061943
H 0.019354 -1.174504 -1.315093
H 3.089833 0.753250 0.637774
H -3.343682 -0.547881 -1.554489