18
H9 C6 N1 O2
O -0.363464 -1.111139 1.025015
C 1.007813 1.513735 -1.011910
C -1.703946 -1.200359 1.559439
N -1.892832 1.519233 0.671134
C -0.047897 0.042249 0.310075
C -0.802423 1.241592 0.178097
C 1.646677 -0.992029 -1.328410
C 1.267393 0.218357 -0.452686
O -0.106366 2.164780 -0.679303
H 0.909005 -1.165032 -2.091742
H -2.190111 2.437847 0.400180
H -1.668606 -2.200103 1.993386
H 2.067767 0.323683 0.302953
H 1.671152 -1.878447 -0.729661
H -2.480244 -1.181171 0.791357
H 2.648289 -0.838297 -1.784504
H 1.728969 2.083304 -1.644515
H -1.835616 -0.511649 2.331633