14
H8 C4 O2
C 0.586489 1.301266 -0.418753
C 0.354110 0.072623 0.369336
C 0.808685 -1.309938 -0.115102
O 0.085714 -2.347882 0.388647
C -0.740451 0.767666 -0.333206
O -1.653497 1.531287 0.452921
H -2.305377 0.931253 0.848845
H 0.774683 -1.281445 -1.200964
H 1.803870 -1.460848 0.151488
H -0.778137 -2.059083 0.763679
H 0.775225 2.284594 0.046616
H 1.143991 1.208318 -1.373903
H 0.395695 0.153579 1.450228
H -1.228000 0.234380 -1.118873