15
H6 C5 N2 O2
C 0.645017 -1.162460 -1.740304
O 1.838267 1.946280 1.655287
C 1.033622 1.224282 1.049456
O -0.238712 1.268811 1.568418
C -1.278595 0.429990 1.004697
C -0.963052 -0.383742 -0.107215
N -2.420015 0.397501 1.534320
C 1.256231 0.495363 -0.036422
N 0.323767 -0.346768 -0.619076
H 2.271214 0.428319 -0.571600
H -0.221944 -1.703824 -2.074837
H -1.655984 -1.061589 -0.598735
H 1.010719 -0.530503 -2.603596
H -2.394992 1.003331 2.392923
H 1.377076 -1.852783 -1.571860