23
H14 C8 O1
C -0.849554 0.058260 -1.202525
C -0.964007 -0.495884 1.776311
C 1.833163 0.863779 -1.470329
C 0.287946 -2.566417 0.248695
C -1.175454 2.119295 1.413628
C 0.089328 0.195786 0.013582
C -0.851473 0.676680 1.225986
O 1.265229 0.801151 -0.125329
C 0.209192 -1.176490 0.969444
H 2.848399 1.242332 -1.334893
H 1.952575 -0.230681 -1.903233
H -0.621830 2.632725 2.212486
H -1.726427 -0.521837 -0.976809
H 1.241359 -2.747999 -0.096649
H -0.279621 -0.395452 -2.059139
H 1.304395 1.482552 -2.161189
H -1.597266 -0.819085 2.579220
H -1.184243 1.059503 -1.544512
H -0.335195 -2.568125 -0.594866
H -1.032105 2.754928 0.492643
H -2.270412 2.258615 1.666178
H 1.091949 -1.100547 1.607789
H -0.102370 -3.283201 0.907421