19
H10 C7 O2
C -1.099262 0.511620 -2.135826
C 0.018377 0.883134 1.051081
C 0.225127 -0.064536 -0.114645
C 0.318161 0.146283 -1.562068
C -0.244503 -0.344032 2.027864
O 1.442439 1.104881 1.176517
C 1.734392 -0.192720 0.915691
O -2.224983 -0.148145 -1.454022
C 0.507562 -1.061568 0.928203
H 0.322207 -0.194248 3.095384
H 0.462915 -2.185731 0.690642
H 0.680337 -0.727896 -2.062477
H 1.010674 0.924147 -1.833612
H -0.641876 1.803739 1.103234
H -1.231186 1.550549 -2.208718
H -2.072549 -0.368864 -0.427852
H -1.176693 0.026378 -3.125423
H 2.747887 -0.553566 1.012908
H -1.201916 -0.734344 2.209827