15
H6 C5 N2 O2
N -1.557367 0.681419 -1.280224
C 0.425572 0.046518 0.029974
O 0.703689 -1.133031 1.926633
C -1.273475 -1.336139 0.167077
C 1.596122 0.379248 0.614154
C -0.047849 -1.021710 0.755441
C -0.742157 0.044601 -0.535467
O 2.412031 1.466194 -0.044401
N 1.776327 -0.212412 1.735602
H 2.312338 1.159240 -1.081360
H 1.738268 2.306969 0.146297
H -1.510714 0.235260 -2.289908
H -2.197897 -1.186761 0.661369
H -2.548879 0.709787 -0.991476
H -1.336375 -2.149989 -0.666486