17
H9 C5 N1 O2
O 1.347114 -1.029158 -0.639992
C -0.128948 0.849147 -0.164657
C 0.222145 1.434111 -1.487142
C -1.507773 0.142527 -0.095942
N 0.203398 -2.048810 2.069903
C -0.186657 -1.039646 1.216592
C 0.811171 -0.337962 0.374158
O -1.409668 -0.809361 0.985655
H 1.256101 1.892958 -1.501773
H 0.288363 0.683426 -2.229995
H -0.116005 1.631059 0.650699
H -0.418206 2.273441 -1.861930
H 1.647796 0.092150 1.094627
H -0.584183 -2.403933 2.428194
H -2.342520 0.907246 0.070578
H -1.707575 -0.312573 -1.029472
H 1.839270 -1.828009 -0.261218