13
H5 C5 N1 O2
O -0.876805 1.472011 -1.063490
C -0.331979 -0.217313 0.339057
O 1.325631 0.436369 -1.057279
C -1.930901 1.207195 -0.260253
C 1.804303 -0.678115 -0.267557
N 0.778006 -0.993470 0.669739
C -1.673757 0.172486 0.684367
C 0.083813 0.656299 -0.666304
H 2.737068 -0.388878 0.262608
H 0.618116 -1.924678 1.071038
H -2.819504 1.797137 -0.379584
H 2.040403 -1.519633 -0.890177
H -2.412994 -0.252493 1.367777