15
H8 C6 O1
C -0.093126 1.062365 0.392421
C 0.492580 1.236235 -0.984694
C -0.932169 -1.336604 -0.480249
C 0.459850 -0.077156 1.344547
C -0.859293 -0.303686 0.612696
O 1.582296 -0.746412 0.931564
C 0.946963 1.578082 -2.033814
H 1.375209 1.740154 -2.886579
H 0.303162 0.140550 2.403491
H -1.768224 -1.181728 -1.172149
H -0.047751 -1.492931 -1.017955
H 2.317752 -0.217932 0.830872
H -1.756408 -0.147020 1.150092
H -0.454947 1.859767 0.862251
H -1.185428 -2.409143 -0.017834