12
H4 C5 N2 O1
C 0.158535 0.656308 -0.550501
C 2.772824 0.620616 -0.160184
C -0.418667 -0.660215 -0.990450
C 1.579073 0.663696 -0.329625
N -1.902652 -0.448605 2.035458
C -1.260274 -0.183510 0.951443
N -0.535972 0.909384 0.671642
O -1.122619 -1.131513 -0.062858
H -0.076270 1.487373 -1.326051
H -2.210445 -1.455603 2.001376
H 3.871913 0.621619 -0.041507
H -0.413122 -1.110552 -2.013173