18
H9 C5 N3 O1
C -1.378369 1.013542 1.305243
N -0.802466 -2.206593 -1.701257
C -0.264903 -0.064383 1.115059
N 1.772910 0.225602 -1.558541
C -0.113367 -0.718864 -0.137568
N -1.011105 -1.732074 -0.479367
C 0.734920 -0.621441 -1.258855
C 1.095170 0.477574 1.172470
O 0.311393 -1.586202 -2.113148
H -1.346988 1.584655 2.242291
H 2.602123 -0.334573 -1.802654
H -2.437367 0.672862 1.186364
H 1.268307 1.562762 1.043236
H -1.886202 -1.951983 0.068301
H -1.320613 1.870034 0.515586
H 1.777324 0.027909 1.693042
H -0.483386 -0.765618 1.937909
H 1.544334 0.758935 -2.401782