18
H9 C6 N1 O2
O 1.087520 -0.557163 2.826072
C 1.145208 0.196407 -0.119251
C -0.115925 0.658252 -2.195574
N -1.030692 1.257166 -1.222464
C -0.062484 0.314564 0.871090
O 2.274298 0.493762 -0.025336
C -0.988356 0.050691 -0.302146
C 0.028869 -0.744159 1.917681
C 0.213004 -0.434516 -1.201378
H 0.202026 -1.729679 1.449431
H 0.719509 1.285019 -2.523962
H -1.904503 -0.522741 -0.197484
H -0.280034 1.302698 1.325049
H 1.857336 -0.187639 2.510257
H -0.621235 0.195838 -3.125587
H -0.904900 -0.818271 2.490448
H 0.417998 -1.475045 -1.435835
H -2.007220 1.465769 -1.679518