16
H7 C7 N1 O1
C -0.686245 -0.293740 -0.405934
C -1.951151 -0.577091 -1.069085
C 1.972867 1.021954 1.281842
N -0.514638 0.207820 0.975516
O 0.268727 1.958545 -0.327904
C 0.477159 0.630652 -0.895079
C 2.968332 1.073917 1.903842
C -1.062964 -1.653509 -0.685838
C 0.791818 0.990048 0.520991
H -2.868711 -0.323197 -0.515599
H -2.049411 -0.332253 -2.062744
H -1.314028 -2.280270 0.168271
H -0.303843 -0.537244 1.638806
H -0.543398 -2.206428 -1.503312
H 3.919080 1.141596 2.425181
H 1.133483 0.454562 -1.690284