17
H8 C7 N2
C 0.408193 0.539489 -0.253932
C 0.147031 0.159933 1.197351
C -1.285953 -2.042332 1.410968
C 0.612478 1.982055 -0.627842
C -0.801897 -0.427474 -0.624046
C 0.215964 -1.429494 -0.623198
N 1.379228 -0.498403 -0.715383
C -0.537486 -1.091864 0.663205
N -1.885245 -2.894562 1.953911
H 1.522049 2.344456 -0.170618
H -1.730046 -0.252851 -1.204943
H 1.041389 -0.013283 1.880996
H -0.231238 2.643028 -0.362029
H 1.614666 -0.362254 -1.661136
H 0.680328 2.043772 -1.700416
H -0.592122 0.756273 1.801381
H 0.238124 -2.409683 -1.072717