17
H8 C7 O2
C -0.747077 -0.529155 1.320734
O 0.385764 1.984774 0.713408
C -1.118985 0.063315 0.000666
C 0.244924 0.757487 0.001437
C -0.354118 -1.043307 -0.785219
O -0.794213 0.270483 2.488941
C 1.091621 0.477300 -1.129239
C 0.323696 -0.454152 -1.928904
C 0.632524 -0.557775 0.429404
H 0.642219 2.700698 0.181082
H -2.142771 0.457735 -0.397157
H -0.723659 -2.130152 -0.808291
H -0.512669 1.159922 2.268975
H -1.221678 -1.427830 1.576278
H 2.025630 0.925553 -1.364381
H 1.513316 -1.057181 0.776033
H 0.351403 -0.685539 -2.983438