18
H9 C6 N3
N 0.855632 -0.822636 -1.699759
C -1.022126 0.087650 2.201537
C 2.072293 -0.334390 -1.621443
C 0.284303 0.467853 0.186851
N 2.381501 0.613307 -0.701335
C -1.404769 -0.976304 -1.068669
C -0.100408 -0.358202 -0.832170
C -0.662733 1.066266 1.237663
N 1.596858 0.991684 0.192550
H -0.794879 -0.928670 2.173646
H -1.446213 -2.100497 -0.858959
H -2.194868 -0.542996 -0.363973
H 3.331429 0.947086 -0.636385
H -1.588626 1.497320 0.845877
H 2.797015 -0.639523 -2.355113
H -0.101995 1.915994 1.813002
H -1.773495 -0.754113 -2.083562
H -1.663759 0.401391 3.082753