23
H14 C8 O1
C -0.895830 -1.107998 -0.189325
C -0.325164 1.556005 -0.447719
C -1.251202 0.259344 -0.542500
C 0.310137 -1.669752 0.311180
C -1.459181 -0.173548 -1.994221
C 0.810444 -0.802158 1.420863
C 0.947412 1.611235 0.486315
C 1.708226 0.278234 0.855905
O -0.239745 -0.595958 -1.882868
H 0.156671 -2.733237 0.556591
H -2.054583 -1.067586 -2.216966
H 0.046632 -0.300149 2.088179
H -1.696754 -1.630627 0.338256
H 1.692377 2.264663 -0.025125
H -1.634818 0.734885 -2.651927
H 0.666537 2.091773 1.377103
H 2.239889 -0.121823 -0.134244
H -0.921358 2.420454 -0.031421
H 0.983203 -1.739140 -0.541075
H 1.314628 -1.403809 2.229079
H 2.491940 0.553005 1.636299
H -2.297232 0.537304 -0.099330
H -0.055740 1.888761 -1.467412