18
H9 C6 N1 O2
C 1.461519 0.074029 -0.760324
C 0.223259 0.915179 -1.259114
C -0.947486 0.767602 0.290820
C 1.077702 -0.628439 0.457912
O 1.732274 -1.668591 1.045077
N 0.093640 1.757742 -0.068585
C -1.198685 0.319638 -1.163063
C -0.211912 -0.313763 1.119897
O -0.977636 -1.453151 1.356299
H -1.940532 0.848358 -1.605790
H 1.051203 -2.362003 1.073658
H 0.420667 1.492490 -2.247799
H 2.270152 0.803831 -0.567200
H -1.249228 -0.799139 -1.376107
H 1.799598 -0.683773 -1.457956
H 0.087611 0.138587 2.128628
H -1.758124 1.345247 0.844208
H -1.662247 -1.431575 1.948786