18
H9 C8 N1
C -0.583231 0.956832 1.061145
C 0.012362 -0.566219 1.205659
C 0.607480 1.497521 0.459255
C -1.420335 -0.189370 0.630665
C -1.156357 -1.091175 -0.519893
N -0.317377 -1.705191 0.419527
C 0.848287 0.147081 -1.442249
C 0.053859 -1.046038 -1.248816
C 1.226180 0.303385 0.076572
H 0.917732 2.544319 0.335576
H -1.085846 1.624076 1.836905
H 2.371162 0.158128 0.235545
H 0.159184 -0.831316 2.284572
H -2.002239 -1.693170 -0.949292
H 0.244726 1.041566 -1.911024
H 1.710383 -0.080593 -2.133072
H -2.478751 -0.219301 1.174796
H 0.343212 -1.906406 -1.845198