17
H8 C7 O2
C 0.989422 -0.520763 2.100871
C 0.472838 1.180030 -0.469664
C -0.762128 0.278075 -0.206511
C 1.513127 0.340086 -0.201962
C -2.045002 0.404373 -1.079260
O 0.411097 2.182288 -1.162119
C 0.240594 -0.710595 -0.520788
C 1.191453 -0.878729 0.665941
O 1.784151 -0.956277 2.944494
H 2.589457 0.466914 -0.436718
H 0.200336 -1.399810 -1.340478
H -1.692264 0.411950 -2.191743
H -2.530612 1.380210 -0.923127
H 1.845989 -1.732960 0.519715
H 0.263164 0.257979 2.435796
H -1.056551 0.271620 0.868595
H -2.744900 -0.392976 -0.945266