19
H11 C6 N1 O1
C -2.333816 1.020458 -1.431483
C 0.376236 -0.094575 1.241113
C -0.388883 0.786106 0.215031
C 2.260957 -0.893016 -0.517376
C 1.577188 -0.904740 0.848091
O 2.682128 -1.875043 -1.017717
C -1.481879 -0.017979 -0.532808
N 1.779946 0.301465 1.589714
H -0.227969 -0.518785 1.931318
H -1.765772 1.536752 -2.097685
H -2.101968 -0.567966 0.104545
H 1.660862 -1.890411 1.291800
H 1.913450 0.034672 2.596265
H -0.971405 -0.805578 -1.173200
H 2.309965 0.112015 -0.863546
H -3.055335 0.383050 -1.924529
H -0.861040 1.617976 0.806527
H -2.835355 1.638718 -0.780896
H 0.303474 1.250075 -0.430855