16
H7 C8 N1
C -0.955601 3.035268 1.345793
C 0.533901 -0.562000 -0.785135
C 1.149506 -1.695282 -0.560346
C -0.867072 0.927818 -0.391885
C -0.344837 -0.339408 0.310697
C -0.277012 -1.282394 1.203146
N 0.668127 -2.195405 0.672448
C 0.206364 0.708794 -1.441986
C -0.937465 2.130924 0.552223
H -0.755816 -1.450804 2.220013
H -0.936847 3.737677 2.118408
H -0.095423 0.660313 -2.511315
H 0.944851 -3.015929 1.129009
H -1.873391 0.947546 -0.876169
H 0.972259 1.553518 -1.527515
H 1.888478 -2.350282 -1.062926