12
H6 C6
C -1.168900 0.116486 0.133055
C 0.801336 0.380906 -0.766667
C -0.220543 -0.996411 0.584081
C -0.329558 -0.670309 -0.901897
C -0.013791 1.134942 0.238395
C 0.918679 0.055352 0.720268
H -0.428926 -1.920501 1.121016
H -0.664851 -1.297825 -1.723491
H 1.558876 0.738342 -1.450904
H 1.796547 0.112318 1.360913
H -2.239725 0.167437 0.232015
H -0.009145 2.179261 0.453205