19
H10 C6 O3
C 0.879268 -0.815356 -2.008002
C 1.121326 0.774796 0.883358
C 0.301357 -1.951332 -1.094648
O -1.523695 0.922082 2.201157
C -0.194061 0.498646 0.159382
C -0.018393 -0.467930 -0.956337
O -0.393301 -0.204965 -2.359176
C -1.180629 -0.047326 1.201626
O -0.826479 1.712299 -0.373207
H 1.828106 1.382288 0.187405
H -0.164255 2.360410 -0.348076
H -2.109387 -0.351326 0.621586
H 0.992949 1.329157 1.786907
H -0.382355 -2.582846 -1.509698
H 0.955441 -2.347348 -0.377485
H -1.903336 1.648028 1.793525
H 1.674439 -0.749541 -2.600895
H -0.731597 -0.934920 1.703697
H 1.674604 -0.174840 1.088894