17
H8 C7 O2
C -1.010705 0.142052 -0.529564
C -1.496535 2.616673 -1.599526
O 0.532815 2.309732 1.269993
C -1.294343 1.506300 -1.117269
C 1.130991 -2.103910 -0.230530
C -0.161873 0.027457 0.744076
C 0.452850 -1.368551 0.840574
C 0.845355 1.171043 0.928779
O 1.889526 -1.249360 0.573809
H -0.763576 0.172522 1.677265
H 1.214255 -3.146008 -0.055650
H -0.651929 -0.414162 -1.351656
H -0.034814 -1.959957 1.541858
H 1.190172 -1.784026 -1.211232
H -2.060800 -0.316136 -0.357177
H -1.699399 3.482011 -2.012387
H 1.918026 0.914301 0.888629