20
H11 C7 N1 O1
C -0.822423 -0.788985 -2.367083
C -0.019497 -0.903834 -1.092405
C 0.359533 0.369458 2.442398
C -0.695104 -0.421562 0.152404
C 0.097542 0.307175 1.041328
N 0.947134 1.347738 1.589160
C -0.995980 1.003689 0.142520
C 1.624402 0.372953 0.428562
O 1.174745 -0.141607 -1.104777
H -1.762734 -1.307673 -2.259358
H -0.475881 0.722977 3.116534
H -0.289829 -1.217540 -3.195728
H 2.260099 -0.350170 0.864525
H -1.032319 0.286275 -2.609411
H -1.784428 1.319284 0.829952
H 2.219878 1.064381 0.000589
H -1.394098 -1.114327 0.670289
H -0.784470 1.678981 -0.653588
H 0.240158 -1.953340 -0.939127
H 1.133284 -0.273868 2.943228