21
H12 C6 N2 O1
C -0.448819 -1.666332 -0.100928
C 0.992589 0.614890 2.116365
O 2.072166 0.088439 2.205951
C 1.393849 -0.046450 -0.511914
N 1.270126 0.868482 -1.623293
C -1.397366 -1.619780 -1.292454
C -0.907579 1.643877 0.809932
N -0.014355 0.520729 1.112596
C 0.372150 -0.408789 0.217695
H -1.598365 1.813806 1.687899
H -0.351683 2.526595 0.601332
H 2.369030 -0.555908 -0.381697
H -1.792815 -2.619419 -1.485295
H 0.712647 1.426581 2.869260
H -1.534539 1.369041 -0.068909
H 2.142361 1.363389 -1.719733
H 0.424676 1.404490 -1.647256
H -0.986871 -1.947138 0.734959
H -2.181673 -0.894089 -1.090769
H -0.812041 -1.356620 -2.188672
H 0.276516 -2.525769 -0.245077