14
H6 C5 O3
O 0.714985 -0.671978 1.626530
C -0.535003 0.471871 -1.335551
C -1.005117 0.309649 0.795130
C -0.259827 -1.039507 0.638620
C 0.492013 0.615511 0.971007
O -1.574585 0.744224 -0.412526
C 0.521666 -0.155851 -0.485235
O 1.733337 -0.531093 -1.032181
H 2.228495 -0.996468 -0.423580
H -0.655891 -2.025803 0.481119
H -1.679520 0.390997 1.748781
H -0.902267 -0.102272 -2.115846
H -0.140726 1.501612 -1.771492
H 1.062432 1.489117 1.315205