18
H10 C7 O1
C 1.585835 -0.401897 -1.126905
O 1.663206 0.532321 -1.904863
C 0.466930 -0.614440 -0.131154
C -2.456352 1.514179 1.207614
C -1.476790 0.405458 1.200816
C 2.557066 -1.581169 -1.228470
C -0.493424 0.588550 0.048633
C -3.288289 2.387305 1.302318
H 2.999673 -1.782054 -0.261539
H -0.967683 0.351272 2.157120
H -0.917071 0.736971 -0.942511
H 2.032040 -2.509369 -1.473400
H -0.090194 -1.523314 -0.378223
H 0.938226 -0.806271 0.858957
H 0.102430 1.507410 0.194920
H -2.098605 -0.587450 1.038862
H -3.926887 3.170499 1.386532
H 3.369860 -1.388011 -1.948706