18
H10 C6 N2
C -0.841366 -0.781539 1.955086
C -0.175900 1.521262 -0.378495
C -0.000078 -1.433576 0.858506
N 1.417946 1.967745 -1.918301
C -0.243878 -1.045816 -0.524200
C 0.534336 2.518012 -1.012584
C 1.209885 0.623730 -1.791767
N 0.282745 0.250181 -0.864622
H -0.234225 -2.616924 0.892033
H 1.803465 -0.095452 -2.298216
H -1.042588 1.560001 0.332922
H -0.426491 0.266492 2.192134
H 0.350084 3.547136 -1.000413
H 0.235718 -1.703290 -1.261403
H -0.751772 -1.380848 2.840418
H 1.064259 -1.375670 1.065623
H -1.312744 -1.086437 -0.755328
H -1.869392 -0.735011 1.668602