19
H10 C7 O2
O 0.855052 -0.484134 0.796749
C 0.642355 0.943747 0.849700
C -0.687096 1.159887 1.588332
O -1.170929 0.385962 -0.587929
C 1.416712 -1.661824 -1.683028
C 0.291678 0.144875 -0.274108
C 0.980288 -0.204901 -1.538894
C -1.724629 0.979740 0.586717
C -1.726931 0.013252 1.776399
H 2.148705 -1.972106 -0.953664
H -2.492759 1.694000 0.391998
H -0.714898 2.033480 2.346065
H 0.336900 0.032387 -2.407091
H -2.488395 0.239186 2.444899
H 1.848126 0.415705 -1.671918
H 0.622454 -2.416928 -1.502819
H 1.474456 1.636269 0.855302
H 1.840588 -1.966388 -2.636404
H -1.451656 -0.972196 1.619673