25
H16 C8 O1
C 1.340602 -1.396622 0.311076
C 0.017325 -0.511555 0.374763
C 0.994006 1.601834 1.566617
C 0.376908 -0.258812 -2.243156
C -1.102415 -1.544054 0.539076
O -1.735549 -2.179751 -0.236354
C -0.272235 0.294034 -0.928451
C 0.051211 0.366228 1.558650
C -1.766019 0.791031 -0.942936
H 2.128089 -0.673590 0.148140
H -2.493536 0.194690 -0.447217
H -1.846824 1.723835 -0.425156
H -0.972349 0.757900 1.748519
H -2.113942 0.935940 -2.022297
H 0.268811 -0.198874 2.438912
H 0.994001 2.090752 2.546924
H -1.340922 -1.817800 1.661571
H 1.976323 1.257872 1.298312
H 0.114293 -1.252387 -2.405032
H 0.646935 2.377967 0.848456
H 1.259876 -2.069324 -0.530789
H 1.489486 -1.879688 1.270226
H 0.144110 0.375818 -3.085276
H 1.499256 -0.198816 -2.189721
H 0.342545 1.213413 -0.854887