16
H7 C6 N3
C 1.436140 -0.886107 -0.285063
C -0.863149 -0.495767 0.736252
N 0.038059 0.457308 1.489028
C 0.166113 1.485927 0.432513
C -1.092836 0.030425 -0.620907
C 1.110937 -0.022723 -1.248012
N -0.004771 0.891279 -0.900538
C 0.571083 -0.867215 0.947727
N -2.078856 -0.190901 -1.372543
H 0.881540 -1.582022 1.705584
H -1.622027 -1.003039 1.324074
H -0.658322 2.208407 0.563130
H 1.584202 0.116238 -2.162979
H 1.139969 1.957880 0.534063
H -2.867608 -0.581816 -0.770915
H 2.259541 -1.517828 -0.371406