16
H7 C7 N1 O1
O 1.376065 -1.630020 0.564602
C 0.546875 -1.108296 -0.084629
C -1.221841 -0.297044 -1.376297
C -0.185191 0.090170 -0.378158
C 0.129970 1.732423 1.325047
C 0.971162 0.721231 1.612577
C 0.107975 -2.118108 -0.896144
C -0.166583 1.489606 0.110400
N -0.906741 -1.730127 -1.669296
H 1.980275 0.705791 1.598385
H -0.070723 2.666841 1.847473
H 0.451813 -3.161874 -1.083572
H 0.538296 0.250054 2.417503
H -1.108356 0.220488 -2.354418
H -2.222080 -0.159251 -1.037715
H -0.220912 2.328119 -0.595788