16
H7 C7 N1 O1
C -0.733629 -0.656038 -0.880171
C 0.467472 -1.922148 0.515643
C 0.591632 1.708824 -0.585725
O -1.155004 -2.700506 0.780488
C -1.585439 -1.306796 0.296494
C -0.028371 0.662257 -0.708762
C 1.309932 2.980129 -0.435557
C -0.605943 -1.524358 1.280206
N 0.402684 -1.635417 -0.867283
H -2.641634 -1.222207 0.382206
H 2.062822 3.083237 -1.222533
H 1.836080 2.970700 0.515597
H 0.578950 3.779653 -0.393281
H 1.394057 -2.225683 0.869761
H -1.228355 -0.702414 -1.834076
H -0.665286 -1.289245 2.286958