18
H9 C7 N1 O1
O -2.257031 1.002078 0.196979
C 0.853012 -0.102229 -0.318110
C -1.484004 0.970699 -0.581072
N -0.705933 0.386229 -2.172950
C -0.399533 1.935877 -1.608902
C 1.128533 -1.457671 1.781655
C 0.455275 -1.225341 0.605731
C -0.223324 -0.769718 1.811963
C -0.210687 0.553162 -0.966550
H -0.182048 0.113560 2.290435
H -0.346986 0.381161 -3.051595
H 0.056759 -2.088249 0.121542
H 1.145580 -2.491226 2.174725
H 1.952719 -0.833260 2.022237
H 0.652845 2.467210 -1.555861
H 1.913302 -0.089832 -0.574148
H -1.188002 -1.253291 2.007982
H -1.160473 2.500839 -2.184065