19
H10 C8 O1
C -1.032185 1.619025 -0.535083
C 0.899143 -0.206345 -0.494245
C -1.489097 -0.697694 0.045300
C -1.954894 0.558868 -0.307299
C 1.575437 -0.427554 0.880443
C 0.770948 -1.692909 1.085964
C -0.087921 -1.015817 0.065178
O 1.400869 1.569161 -0.656119
C 0.307430 1.076839 -1.178741
H -2.262257 -1.488300 0.389677
H 1.287996 0.324443 1.642244
H 2.682790 -0.518850 0.947053
H 1.435285 -0.746566 -1.321985
H -0.788120 2.160482 0.364990
H -3.040190 0.637850 -0.360483
H 0.229961 0.954746 -2.247128
H 1.218891 -2.616402 0.815620
H 0.316354 -1.812353 2.130162
H -1.470387 2.321417 -1.265550