18
H9 C7 N1 O1
O -2.139084 -1.047106 -0.642937
C 0.697721 -1.421984 0.724188
N -0.144560 -1.134676 1.883324
C 0.011258 1.437172 -1.161700
C 0.753751 0.155035 -1.472395
C 0.332404 -0.337116 -0.180704
C -1.241902 -0.278571 -0.357500
C -1.159299 1.186605 -0.230135
C 0.257759 1.208793 0.267053
H 1.726680 -1.362773 1.004385
H -0.005843 2.390306 -1.752116
H 1.846665 0.378110 -1.594129
H 0.785953 1.789244 1.038006
H -1.934303 1.946126 0.136189
H 0.495020 -2.449348 0.332268
H 0.333630 -0.524120 2.534284
H -1.023028 -1.486263 1.890507
H 0.407172 -0.449439 -2.418585