19
H10 C8 O1
C 1.184502 0.451764 -0.594764
C 1.228891 -1.583347 0.338078
C -0.200253 -1.137055 0.321136
C 0.390931 0.717625 -1.699309
C -0.646004 2.313672 0.585413
C -0.237121 0.203579 -0.384886
C 2.031928 -0.573740 -0.229133
C -1.343059 -1.884084 0.817954
O -1.166015 1.089971 -0.073182
H -1.412013 3.119115 0.371945
H 0.401521 0.200574 -2.577886
H 1.501624 -2.512201 0.632177
H 3.093393 -0.655542 -0.451325
H -0.665645 1.987648 1.674340
H -2.173855 -1.245818 0.739597
H 0.235530 1.810958 -1.930001
H -1.161180 -2.206886 1.881483
H -1.454577 -2.760635 0.270766
H 0.391399 2.664388 0.307618