14
H5 C5 N3 O1
C -0.135875 0.552531 -1.239790
C 0.986099 1.122903 -0.699553
O -0.679496 0.768750 -2.285687
C -0.619696 -0.833068 0.801655
C -1.922289 -1.076427 -0.493261
C 1.699350 0.933369 0.507114
N 1.492819 0.114797 1.542372
N 0.417599 -0.749973 1.705391
N -0.829021 -0.435748 -0.326631
H 0.393187 -1.262318 2.513443
H 2.631932 1.515415 0.587126
H -2.419011 -0.757512 -1.427894
H -2.419088 -1.836057 0.125456
H 1.403492 1.943352 -1.309742