14
H5 C6 N1 O2
O 0.368808 1.633761 0.502042
C -1.362499 -1.728018 -1.783781
C 1.771636 -0.166809 1.245979
C -1.006572 -1.057017 -0.834001
N 2.468235 -0.660387 2.045781
C -0.533658 -0.270060 0.313755
O 1.476146 0.254957 -0.939894
C -0.956857 1.131323 0.538903
C 0.859850 0.330298 0.178267
H -1.599748 -2.318585 -2.669132
H -1.463550 1.401028 1.477193
H 2.318952 0.711993 -0.964775
H -1.604705 1.588562 -0.357539
H -0.736017 -0.851014 1.247184