17
H8 C7 O2
C 0.344114 -0.988244 0.851077
C -0.171468 -1.353349 -0.610894
C -0.725013 0.794233 0.264426
C 1.384026 0.103036 0.699277
C -0.233666 0.904229 -1.117914
O -1.408805 1.677351 1.010680
C -0.128861 -0.415674 -1.623557
C -1.066985 -0.712969 0.432730
O 0.922668 1.324082 -0.139930
H 1.599178 0.589678 1.641252
H -1.930611 -1.140104 0.899705
H 2.272993 -0.344132 0.301478
H -0.210615 -2.459909 -0.789783
H 0.207465 -0.582537 -2.697713
H 0.565092 -1.735016 1.584041
H -0.897659 2.564687 1.002779
H -0.521866 1.774616 -1.707622