15
H6 C7 O2
O -2.028531 -1.773537 -1.908532
C 0.773207 2.751315 0.696264
C 0.809285 -1.402658 2.036156
C -1.088359 -1.359486 -1.263530
C -1.060126 -0.074772 -0.495414
C 0.592428 1.588877 0.467699
O 1.277695 0.003003 -1.103986
C 0.657883 -0.712447 1.145443
C 0.402828 0.200253 0.026949
H -1.452727 0.660865 -1.037927
H -1.788538 -0.232657 0.342022
H 0.961113 3.705793 1.007375
H 0.945028 -2.094985 3.004172
H -0.143465 -1.955296 -1.195669
H 1.142284 0.695744 -1.721029