19
H11 C5 N1 O2
C -0.576441 -2.443794 0.452195
N 0.737603 0.659219 -0.411344
C 0.676557 -1.664735 0.236049
O 1.013672 3.115285 1.059518
C -0.234602 1.408133 0.022584
C -0.192060 2.860387 0.410612
C 0.522799 -0.628870 -0.950892
O -0.677813 -0.747777 -1.777801
H -1.431807 -1.838898 0.765347
H 1.258713 -0.966658 -1.611183
H -0.277936 3.452002 -0.536948
H -1.391045 -0.528200 -1.292812
H -0.971539 3.196964 1.053696
H 0.909081 -1.065193 1.141757
H -0.420262 -3.243299 1.158306
H 1.685627 2.482139 0.840367
H -1.255550 1.111754 0.026713
H 1.532768 -2.287039 -0.024104
H -0.907745 -2.871393 -0.562072