17
H8 C6 N2 O1
C -1.389776 0.631012 0.735554
C -1.681563 -0.432448 -0.263480
C 0.588089 0.067893 -0.028393
O -1.810846 2.015846 1.988625
C 2.034626 0.464132 -0.298880
C -0.424777 -0.335705 -1.186444
N -0.174284 0.920977 0.849473
C 1.717966 -0.874080 0.451299
N -2.310988 1.219960 1.378281
H 2.373315 0.426318 -1.311928
H -0.534501 0.362219 -1.915691
H 1.865976 -1.829948 -0.100436
H -2.620290 -0.247107 -0.813209
H -1.786668 -1.404788 0.197134
H 2.424765 1.241307 0.382700
H -0.095718 -1.330268 -1.591595
H 1.824697 -0.895313 1.527020