21
H12 C8 O1
C -2.350557 0.045923 -0.189737
C -1.704406 0.047053 1.127162
C 2.053871 0.536720 -0.216646
C 0.405668 -1.348401 -0.817262
C 1.714515 -0.810633 -0.837919
C 0.924127 1.082960 0.662968
C -0.644281 -0.700874 -0.229007
O -1.005241 -1.948330 -0.765434
C -0.656440 0.502808 0.032844
H 0.900539 0.855822 1.596471
H 2.407881 -1.340681 -1.375962
H -1.906500 0.784094 1.950836
H -1.771730 -1.038264 1.642148
H -2.918533 1.008107 -0.373481
H -0.795699 1.410928 -0.476837
H -0.225914 -2.595651 -1.191313
H 3.046681 0.918430 -0.277537
H -2.971226 -0.726606 -0.476557
H 1.818715 1.234047 -1.247896
H 2.637300 -0.151104 0.874380
H 1.041204 2.233647 0.588793