15
H7 C5 N3
C -0.133778 -0.680107 -0.301085
C 1.702138 -1.044883 1.373535
N -2.405660 2.674019 -2.734626
C -1.875412 2.089496 -2.035398
N -0.748092 -0.024099 -1.241149
C 0.424903 -0.345487 1.078145
C -1.133256 1.265516 -0.968314
N -1.075916 1.781734 0.123104
H 2.042447 -0.765757 2.399451
H -0.017538 -1.727933 -0.500793
H 2.514239 -0.881792 0.694030
H -0.382371 -0.602786 1.747315
H 1.546540 -2.098801 1.407635
H 0.540454 0.771682 1.100947
H -0.998689 -0.410782 -2.142809