12
H6 C6
C -1.609986 1.757830 0.903795
C 0.774726 -0.779048 0.847670
C 1.665394 -1.071833 1.538354
C -1.018461 0.802460 0.474381
C -0.311353 -0.401480 -0.061760
C 0.202963 -0.157861 -1.489689
H 2.506965 -1.339306 2.146292
H -1.036753 -1.200974 -0.088912
H -0.663004 0.115631 -2.161282
H 0.895068 0.693450 -1.505285
H -2.119349 2.617294 1.264085
H 0.713788 -1.036166 -1.867657