13
H7 C4 N1 O1
C -0.339015 -0.376917 -0.266276
C -0.355859 -1.284079 0.962078
C -0.814885 1.080982 -0.072908
C 1.017792 0.223017 -0.716145
H 0.101991 -0.798560 1.816889
H -1.375436 -1.532651 1.235372
H 1.323669 0.007286 -1.743462
H 0.173240 -2.208887 0.747561
H 1.847687 0.035485 -0.029160
H -0.876278 -0.838964 -1.102831
H 0.725380 2.503468 -0.620573
N 0.397537 1.555791 -0.541132
O -1.825835 1.634060 0.330587