13
H7 C4 N1 O1
C -1.391029 -0.194667 0.838583
C 2.061237 0.514408 -0.717454
C -0.392194 0.328693 -0.198986
C 1.055780 -0.056042 0.187136
H 1.268343 0.282492 1.204028
H -1.182003 0.221817 1.821785
H -2.414482 0.083552 0.551285
H 1.146104 -1.160997 0.205186
H -0.490881 -1.040555 -1.627962
H -1.343213 -1.275964 0.922588
H -0.465762 1.423616 -0.242794
N 2.834532 0.979205 -1.422763
O -0.686428 -0.105572 -1.520622