13
H7 C4 N1 O1
C -0.299289 0.256186 2.193526
C 0.319321 -0.493919 -2.601423
C 0.339972 0.389771 -1.428529
C -0.055495 -0.287786 -0.115373
H -1.340987 -0.100405 2.247812
H -0.188046 1.105504 2.864727
H 0.619826 -1.134105 0.104161
H -1.082353 -0.698689 -0.184409
H 1.348667 0.825182 -1.351103
H 0.372552 -0.550610 2.492059
H -0.358288 1.210270 -1.627597
N 0.297119 -1.220046 -3.486908
O 0.027016 0.698632 0.893021