18
H9 C6 N1 O2
C -0.840448 -0.046645 -0.973394
N 2.026648 -2.180114 -1.417341
C -0.840113 0.276791 0.525071
O 0.484329 0.954766 0.748527
C -0.796189 -0.718442 1.617561
C 0.633258 0.027566 -1.465973
C 1.339385 -1.226568 -1.434742
C 1.199368 1.117654 -0.477089
O -0.941967 0.081122 2.766346
H -1.934807 0.781901 0.642580
H 0.089878 -1.360721 1.524781
H -1.480331 0.640521 -1.514173
H -1.205996 -1.052288 -1.207638
H 1.092121 2.126524 -0.918220
H -1.636435 -1.366877 1.608541
H 0.671241 0.426492 -2.504428
H 2.262207 0.968744 -0.357958
H -0.122161 0.549544 2.837543