22
H14 C8
C -0.462050 -0.575291 1.376051
C 0.677305 -0.414995 -0.832860
C -1.647275 0.547616 -0.049363
C -0.117874 0.317107 0.195707
C 2.072033 -0.648792 -1.018692
C -1.858453 -0.036915 1.386304
C 0.337709 -1.233764 -1.830071
C 0.589949 1.650547 0.495536
H 0.115866 -2.263505 -1.649378
H 2.256507 -1.777060 -0.674845
H 2.711255 -0.152983 -0.298745
H -0.298246 -0.823970 -2.670469
H 2.307111 -0.049186 -1.987484
H -0.448964 -1.608691 1.136044
H 0.020726 2.206002 1.206628
H 1.595037 1.496475 0.809817
H 0.153681 -0.436421 2.276566
H 0.617195 2.244379 -0.428325
H -2.003580 -0.117392 -0.843346
H -1.943989 0.837972 2.109003
H -1.982067 1.500262 -0.264710
H -2.691852 -0.661369 1.556643