25
H16 C9
C -2.455277 0.897554 0.300437
C 0.007660 1.332969 0.901063
C 0.492399 -1.484532 0.411267
C 1.335518 0.855988 0.370181
C 0.954724 -0.340106 -0.525353
C -0.881994 -1.009674 1.022390
C -1.015262 0.353232 0.335177
C -0.399629 0.156863 -1.088484
C 2.051794 -0.800881 -1.487534
H -0.232533 2.325639 0.593378
H 1.210173 -1.655552 1.266860
H -0.049668 1.347603 1.990481
H 1.860700 1.624981 -0.214018
H -3.135357 0.177084 -0.273107
H -1.664433 -1.666408 0.766932
H -0.234199 1.017159 -1.709956
H -0.952052 -0.923757 2.010870
H 1.737091 -1.622156 -2.053775
H 2.338622 0.022551 -2.152522
H -2.532252 1.880337 -0.218989
H -0.885090 -0.559128 -1.691020
H 0.367029 -2.430579 -0.076259
H 2.941587 -1.060470 -0.935416
H 2.034647 0.535540 1.172791
H -2.894219 1.025744 1.284587