18
H9 C6 N1 O2
C -0.615624 2.223459 -1.538332
C -0.025904 -2.252937 0.830849
C 1.241924 -0.255078 1.525771
C 0.425392 1.280485 -0.880160
O -0.403938 -2.604600 2.128828
N 2.055895 0.124517 2.283293
C 0.241404 -0.802685 0.629294
C -0.139955 -0.047672 -0.593248
O -1.015452 -0.005969 0.507348
H 0.890011 -2.793744 0.616055
H -1.467056 2.384641 -0.774314
H -0.133478 3.190358 -1.783774
H -0.432462 -0.607543 -1.451735
H -1.047069 -1.906968 2.416363
H 0.884805 1.733694 0.021388
H -1.014783 1.762516 -2.446310
H -0.749123 -2.587180 0.051616
H 1.305431 1.164734 -1.542940