18
H9 C7 N1 O1
O 0.343536 -0.254538 -1.870217
C 0.026485 -0.658483 -0.557913
N -2.212748 -0.942145 2.128304
C 0.020323 0.712001 -0.039056
C 0.620512 -1.967942 -0.109039
C 0.594271 1.384124 1.185944
C -1.252922 -0.116920 -0.161919
C -1.811049 -0.606196 1.045794
C 0.338673 1.132976 -1.519606
H 1.631704 1.545736 1.065320
H 0.211445 -2.794396 -0.653452
H 1.723592 -2.009448 -0.256624
H -0.362813 1.719555 -2.109768
H 1.338763 1.567648 -1.636976
H 0.398946 0.789587 2.065393
H -2.049448 0.265236 -0.943678
H 0.379900 -2.102126 0.959741
H 0.060827 2.335330 1.407723