17
H8 C7 O2
O 0.472531 1.296368 -2.397120
C -0.359367 1.185751 -1.242937
C 1.734154 0.824341 -2.011633
C 1.450588 -0.282042 -0.891282
C -1.046494 -0.793584 1.764543
C -0.036375 -0.249996 -0.708078
C -0.540502 -0.505797 0.592047
C -1.547531 -1.098011 3.018960
O 2.295796 -0.922065 -0.368768
H -2.148487 -0.323194 3.461109
H 2.230889 0.338911 -2.842873
H 2.457959 1.547093 -1.616527
H -0.724259 -1.242687 3.693838
H -0.480516 -0.988407 -1.421139
H -2.139763 -1.985729 3.047345
H -1.406503 1.274952 -1.610198
H -0.212135 1.924103 -0.467305