19
H10 C9
C 0.128550 1.002317 -0.197773
C 1.079595 -1.119610 0.589524
C -0.993449 -0.107586 -0.378019
C -2.990402 0.436696 1.277817
C 0.920018 1.163751 -1.447643
C 0.988616 0.379182 0.915162
C 1.559801 1.247912 -2.447950
C -0.251906 -1.434582 -0.011161
C -2.089745 0.213729 0.539999
H 1.921400 -1.299240 -0.100229
H 1.390044 -1.674866 1.460669
H -0.061552 -2.031542 -0.975966
H -3.768837 0.656012 1.916167
H 2.134141 1.346404 -3.367836
H -0.289277 1.978745 0.093420
H -1.292250 -0.117333 -1.432977
H -0.881322 -2.055866 0.603932
H 0.506459 0.547462 1.891123
H 1.990138 0.868411 1.071775