18
H9 C7 N1 O1
C 0.000347 1.201636 0.460144
C -0.915570 -1.338185 -1.907626
O -0.832382 0.490065 -0.366905
C -1.344159 2.469432 2.396253
N -0.786144 -2.096551 -0.633212
C -0.180704 -0.677786 -0.761541
C 1.072111 0.214704 0.849130
C 1.245575 -0.551231 -0.419028
C -0.703379 1.953251 1.442473
H -1.956264 2.990443 3.135903
H 2.031996 0.691777 1.264210
H -0.116864 -2.806566 -0.663996
H 0.726839 -0.427646 1.676078
H -1.969761 -1.120704 -2.124547
H 1.768775 -1.537480 -0.335754
H 0.535208 2.073282 -0.159032
H 1.783505 0.105870 -1.148504
H -0.359132 -1.634299 -2.704059