17
H8 C7 O2
O -1.283457 2.538139 1.356686
C 0.848835 -0.051050 1.183489
O 0.183165 0.860817 2.157217
C 0.189164 0.743649 0.112212
C 0.605158 0.635100 -1.360533
C -0.386498 -0.600587 -1.605051
C -0.434813 1.596048 1.232587
C -0.006541 -1.288952 0.916424
C -0.836560 -0.469178 -0.075806
H -1.809380 -0.261884 0.013699
H 1.704285 0.373574 -1.541861
H 1.924875 -0.152503 1.399672
H 0.406002 1.578927 -1.954622
H -1.099543 -0.290213 -2.341713
H 0.057639 -1.470918 -1.792927
H 0.506905 -2.125174 0.463334
H -0.569247 -1.615781 1.837148