18
H9 C7 N1 O1
C -0.354099 1.000548 -0.040879
C 1.192878 1.184917 0.314125
O -2.071741 -0.599769 0.903254
C 0.012087 -1.365867 -0.603610
C 0.262288 -0.964460 0.766211
C 1.088230 -0.424177 -1.188045
C -0.346664 -0.003849 -1.229890
C -0.894830 0.053763 1.086860
N 1.564584 -0.291814 0.249024
H 0.462469 -1.721603 1.509565
H 1.331574 1.519629 1.329534
H -2.793507 0.112988 0.690243
H -0.365003 -2.356213 -1.082999
H 1.798026 -0.547488 -1.972453
H -0.971658 0.082574 -2.108805
H -0.861717 1.942559 -0.264938
H 1.753634 1.788364 -0.384927
H -0.806537 0.589939 2.027724