15
H7 C4 N1 O3
N -2.598753 -0.063846 1.626725
C 1.791488 1.558205 -0.284661
C -0.364362 -1.287634 -0.823552
O -0.490035 0.435957 0.653788
C -1.600270 -0.430560 0.820241
O 1.173965 0.544987 -0.992911
C 0.434991 -0.284328 -0.114267
O -1.551254 -1.475382 0.003133
H -0.683003 -0.879512 -1.816810
H -3.290310 -0.830876 1.622217
H 2.399173 2.087091 -1.021414
H 1.129237 -0.751934 0.627481
H 1.091135 2.321897 0.149380
H 2.452695 1.300026 0.545666
H 0.105307 -2.244092 -0.995019