16
H7 C6 N1 O2
C 0.546444 -0.158068 -0.188475
C -1.138202 -1.442901 -0.068293
O -1.509729 -2.472826 -0.623576
N -0.687052 -0.233286 -1.020860
C -0.463309 0.860618 -0.246901
C -1.166484 1.306680 0.874636
C -1.977858 1.508346 1.768762
C 2.001964 -0.115921 -0.644336
O 0.118966 -1.211338 0.644965
H 1.874493 -0.774519 -1.730822
H 2.522199 -0.986754 -0.194797
H 2.153723 0.770149 -1.235966
H -0.224952 1.713121 -0.959060
H 2.412832 0.489253 0.378099
H -2.532045 1.818691 2.587207
H -1.930984 -1.071273 0.659404