23
H14 C9
C -1.523731 0.355322 1.903239
C -0.153936 -0.298568 1.914393
C 0.107298 -1.045314 -1.956260
C -0.610776 -0.676529 -0.641329
C 0.641031 0.137620 -2.641976
C -0.570940 1.421942 1.228597
C 0.441766 1.034620 2.434966
C 0.028537 0.220335 0.440748
C 1.592610 -1.134618 -2.023903
H -0.895171 -1.611922 -0.282235
H 0.025476 -1.315317 2.203961
H -2.345797 0.053129 1.153168
H -0.019453 0.346668 -3.493871
H 0.193335 1.374427 3.384367
H 0.899944 1.049456 -2.193652
H -1.550717 -0.129537 -0.939329
H 1.056046 0.532264 0.130863
H 1.475288 1.250017 2.217988
H 2.084197 -1.958498 -2.511928
H -0.809811 2.411996 0.897516
H 2.143355 -0.840614 -1.164937
H -1.999087 0.648331 2.805160
H -0.209489 -1.825166 -2.865549