20
H12 C5 O3
C 0.441632 0.263077 -1.688261
O 1.192460 -0.744179 2.409214
C 1.238408 -0.480644 1.063052
C -1.955196 -0.603046 0.428716
O -0.602628 0.480163 -2.558098
C 1.051027 0.999942 0.731373
C 0.188625 0.175827 -0.149061
O -1.165281 0.492184 0.136197
H -3.003249 -0.249434 0.664389
H 0.133860 -1.027633 -1.861970
H -1.360971 0.720594 -2.061106
H 0.362723 -0.317567 2.702277
H 1.951923 1.565022 0.316660
H 0.513646 1.709517 1.355412
H 0.736599 1.542859 -1.702714
H 1.416579 0.016168 -1.867271
H 0.269733 -1.269198 0.370796
H -2.074686 -1.292375 -0.405341
H -1.619606 -1.261802 1.330022
H 2.284450 -0.719493 0.785647