17
H8 C5 N2 O2
C 0.673782 0.542259 1.222562
O 2.725403 0.480604 -1.129183
C 1.617951 -0.327506 -1.005296
C -1.323581 -0.061594 1.020480
C 0.561779 0.504357 -0.278336
C -0.855309 0.075085 -0.260873
N -2.632607 -0.354577 1.499807
N -0.265718 0.181651 1.979023
O -1.514466 -0.302879 -1.345621
H 3.278782 0.002456 -1.689416
H -1.861371 0.456145 -1.734662
H 1.846534 -1.267082 -0.447900
H 1.714824 0.842715 1.669981
H -2.594752 -0.814274 2.407635
H -3.172993 -0.813504 0.817182
H 1.188937 -0.623811 -2.022569
H 0.612863 1.479942 -0.702818