16
H8 C4 N4
C -1.339900 -1.291218 2.032905
N -0.837301 -1.346564 0.696865
C -0.159292 -0.244901 0.211531
C 0.351178 -0.128417 -1.080246
N 0.075964 0.836307 1.012434
N 1.603629 1.870247 -1.905827
C 0.923575 1.179994 -0.973418
N 0.759819 1.683206 0.277878
H -2.158480 -0.580328 2.131644
H 1.225580 1.860993 -2.867809
H -0.395232 -0.193144 -1.929759
H 1.803634 2.893219 -1.627096
H -1.782124 -2.302618 2.322449
H -0.631281 -1.109522 2.819435
H 1.112463 -0.923743 -1.370938
H -0.552230 -2.203502 0.249949