20
H11 C7 N1 O1
O -1.892747 1.340840 -2.257036
C 1.849259 -1.463401 0.843011
N 0.270396 0.483884 0.408537
C 0.916003 -0.384697 1.423972
C 0.039968 2.134667 -0.985122
C -0.815953 0.126819 -0.332516
C -1.619914 -1.120585 -0.218983
C 0.809888 1.711663 0.059280
C -0.949847 1.253007 -1.277286
H 1.265331 -2.063162 0.112964
H 1.432750 0.274175 2.107683
H 2.225171 -2.059462 1.574331
H 1.599268 2.136273 0.523912
H -2.579793 -0.999212 -0.786417
H -1.147745 -1.974512 -0.706917
H 0.171097 3.123538 -1.461577
H 2.669534 -0.918470 0.377808
H -1.902459 -1.334702 0.816159
H -2.455898 0.622725 -2.219282
H 0.115705 -0.889374 1.997486