21
H12 C9
C -1.009510 -0.115824 -1.149488
C -0.076862 -0.749798 0.762409
C 0.516545 -0.358801 -0.691967
C 1.316092 -1.233978 -1.549975
C -1.749568 0.911866 1.089466
C 1.262840 0.855581 0.040101
C 0.541301 0.462106 1.404498
C -1.448116 -0.341181 0.307204
C -0.642776 1.383450 1.669923
H -1.335625 -0.923549 -1.837714
H -0.547517 2.273792 2.242990
H -1.221959 0.828327 -1.556732
H 1.030160 1.773367 -0.335599
H -2.692630 1.420357 1.065993
H 0.110347 -1.717345 1.240970
H -2.297434 -1.103499 0.410338
H 2.300529 -1.525680 -1.089579
H 1.601540 -0.688691 -2.506154
H 1.207455 0.352316 2.252490
H 2.319204 0.652076 0.027337
H 0.815966 -2.154881 -1.796492