21
H12 C8 O1
C 0.422737 -1.410648 -0.225384
C 0.161500 0.883225 0.443838
O 0.584989 1.479228 -0.811638
C 0.571416 -0.916066 -1.599587
C -0.029840 1.878962 1.628272
C -0.200799 0.443779 -1.492548
C -1.082421 0.253743 -0.260352
C 1.022293 -0.430397 0.816768
C -1.124877 -1.243256 0.072205
H 0.120099 -1.540700 -2.344213
H -1.737467 -1.854266 -0.640144
H 2.048390 -0.164932 0.587637
H -0.538565 0.836653 -2.477522
H -1.418379 -1.467932 1.087511
H 0.898795 -0.745187 1.745444
H 0.828574 -2.450274 -0.029093
H 1.628627 -0.724201 -1.920335
H -2.009711 0.795396 -0.203471
H -0.493280 1.430343 2.489150
H 0.952417 2.202832 1.901481
H -0.604503 2.743692 1.231947