18
H9 C7 N1 O1
C -0.987638 -0.132720 -0.041584
C -0.554246 -1.437725 0.693527
C -0.441983 1.486954 -1.740897
C 0.532585 -0.675179 1.503192
C 0.766299 1.023819 -0.354587
O 0.021551 2.231945 -0.696268
C -0.073614 0.673512 0.909917
C 0.830641 -1.751303 0.423217
N -0.086474 0.032522 -1.208860
H -0.332283 1.476620 1.598894
H 1.265815 -1.623556 -0.446686
H 1.803759 1.005831 -0.391965
H -1.459322 1.540026 -1.990427
H 0.231376 1.746570 -2.619954
H -2.099975 0.049849 -0.180458
H -1.324841 -2.099283 1.124227
H 1.187949 -2.728922 0.939270
H 0.720437 -0.818994 2.479436