14
H5 C5 N1 O3
C -0.912252 0.545579 -0.633652
C -0.252391 -0.230916 1.710700
C 0.369943 -1.307879 -1.136317
O -0.855576 0.436328 2.480619
C 0.989874 1.683089 0.639055
N 1.517539 2.682532 0.691594
C 0.285020 0.386265 0.338487
O 1.219722 -0.510774 -0.335837
O -0.754823 -0.537003 -1.537636
H 0.031387 -1.300643 1.803615
H -1.911128 0.535447 -0.107641
H 0.990114 -1.604443 -2.081922
H -0.803378 1.485058 -1.190203
H 0.085951 -2.262686 -0.640860