21
H12 C8 O1
C 0.157136 1.032168 -1.139249
C 2.212576 -0.371991 -2.234834
C 0.320933 1.555877 0.245457
C -0.616038 0.428620 -0.031462
C -0.559643 -1.155914 1.772187
C -0.500342 1.918510 -2.097093
C -0.214911 -2.578184 2.111213
C 1.290737 0.298239 -1.692933
O -0.289861 -0.893960 0.381596
H -1.701291 0.616615 -0.006019
H -0.153883 -0.432718 2.455090
H -0.610975 -3.306213 1.430868
H -0.901150 1.347591 -2.993614
H 3.006939 -0.820249 -2.656245
H 1.172695 1.276003 0.922949
H 0.156486 2.681113 -2.515998
H -1.706248 -1.047013 1.950585
H -0.476655 -2.739807 3.106502
H -0.119546 2.502723 0.534716
H -1.380128 2.372463 -1.598137
H 0.913203 -2.683873 2.054442