18
H9 C7 N1 O1
O -0.098839 -0.433396 -1.423986
C -0.632216 0.011161 -0.083911
N 1.483211 -0.175157 1.184378
C -1.764568 0.922823 -0.338701
C -2.684220 1.673474 -0.402806
C 1.354880 -0.585730 -1.285877
C -1.139651 -1.227491 0.640903
C 0.594427 0.732700 0.535850
C 1.788375 0.329123 -0.104436
H 2.051941 0.343128 1.914402
H -1.589329 -0.981558 1.640706
H -1.912904 -1.773614 0.022988
H 1.503885 -1.692461 -1.032632
H 1.794293 -0.359212 -2.209258
H -0.310560 -1.918811 0.814572
H 2.532595 0.979625 -0.319303
H -3.445744 2.413743 -0.547814
H 0.474396 1.741684 0.994955