16
H7 C6 N1 O2
O -1.529996 2.126473 0.233405
C 0.868782 1.210241 0.007740
C 0.853540 -1.187638 -1.542715
C -0.967911 -0.982014 0.528950
O 1.691593 1.840554 -0.503811
C 0.263156 -0.451580 -0.383192
C -0.454336 1.218397 0.460595
C -0.380331 0.051849 1.418824
N 1.054580 -0.084637 0.906426
H -1.217724 2.950299 0.632006
H 0.863910 -2.234167 -1.311631
H -1.962667 -0.868107 0.228378
H -0.426626 0.197594 2.607867
H -0.764356 -1.984023 0.843625
H 1.838022 -0.907352 -1.732921
H 0.270367 -0.895892 -2.393513