16
H7 C5 N1 O3
N 0.395830 -1.070686 -0.113041
C 1.300154 1.035707 0.615354
O -1.395457 -0.286345 -1.359462
C -0.148820 1.193251 0.071390
O -2.698566 -1.707333 -2.458990
C -0.402509 -0.222423 -0.511783
C 1.458809 -0.518166 0.714002
O -1.124058 1.515263 1.108473
C -1.780476 -1.576997 -1.740322
H 2.436918 -0.884951 0.444666
H -1.278356 0.729748 1.730832
H 1.419635 1.526417 1.608286
H 1.267922 -0.880846 1.736951
H 1.992567 1.415952 -0.072121
H -1.188004 -2.320523 -1.170396
H -0.255540 2.051910 -0.603855