21
H12 C8 O1
C 0.428124 -0.460344 -1.211371
C -0.080661 0.656303 0.775882
C 1.253800 0.521558 0.735593
C -2.549616 -1.178205 -0.290631
C -0.800335 -0.161962 -0.239041
C -2.171681 0.267011 -0.740428
O -1.248930 -1.460133 0.219637
C 2.361167 1.239517 1.554415
C 1.562974 -0.547304 -0.336975
H -0.538091 1.314961 1.506921
H 1.850804 1.835490 2.280534
H -2.801885 -1.823378 -1.121222
H 2.984312 0.534406 2.062206
H 2.546130 -0.185545 -0.913376
H -2.249559 0.486059 -1.817378
H 1.795717 -1.482960 0.101452
H 2.927816 1.812879 0.921964
H 0.223468 -1.411255 -1.806477
H -3.332021 -1.251674 0.479687
H -2.609156 0.997726 -0.178188
H 0.447616 0.296845 -1.983199