19
H10 C7 O2
C 1.318983 0.352665 0.730667
C -0.736206 1.763276 -0.105408
O -1.835676 -1.699090 0.618816
C 0.052324 1.064761 0.942899
C -0.533343 -1.419896 0.330009
O -0.191520 -1.592061 -1.029864
C -0.566105 1.608984 -1.587444
C 0.144037 -0.423411 1.215907
C 0.310157 -2.536264 -0.248923
H -0.043303 -3.515279 -0.429218
H -1.423739 2.412487 0.215893
H 1.383370 -2.526970 -0.044340
H -0.287037 0.606764 -1.851660
H -1.538119 1.868084 -2.142457
H 1.537578 0.160150 -0.310969
H 0.099754 -0.659584 2.276421
H -0.009906 1.660821 1.917599
H 2.164456 0.535732 1.403815
H 0.154317 2.338813 -1.901715