22
H13 C7 N1 O1
C 2.692090 1.528736 0.600434
C 1.484260 1.241085 -0.238568
C -2.879236 -1.361487 -1.042779
O 1.178561 -1.144906 0.359146
C 0.522753 0.104029 0.289425
C -1.612972 -1.278152 -0.142560
C 0.109242 0.492561 1.648994
C -0.762196 -0.039676 -0.612640
N -0.224796 0.681046 2.740099
H 3.314387 2.300551 0.200650
H 1.827656 0.847190 -1.293889
H -3.467678 -2.267802 -0.775706
H -3.478375 -0.456079 -0.906855
H 3.290750 0.620708 0.773692
H -1.012964 -2.146994 -0.303221
H -1.238798 0.871559 -0.626786
H 1.913402 -1.106475 1.004368
H -1.864368 -1.224570 0.905760
H 0.892487 2.150836 -0.417031
H -2.643643 -1.392552 -2.147527
H 2.366413 1.861470 1.589233
H -0.406984 -0.281088 -1.604270