22
H13 C8 N1
C -0.786999 -0.513418 0.205131
C -0.407177 1.643566 -1.016478
C 0.187404 0.325935 -0.542338
C -2.087165 0.186195 -0.316960
C 2.483852 0.282803 0.543291
C -1.709809 0.389417 1.126588
C -0.603939 -1.915361 0.366561
C 1.665342 -0.035997 -0.657748
N -1.723893 1.139889 -1.322746
H -0.275026 -2.478201 -0.548413
H 2.042429 0.519431 -1.599332
H 2.409860 1.316323 0.745179
H -0.398973 2.468932 -0.296558
H -2.928186 -0.464934 -0.630160
H -0.017908 1.955815 -1.934774
H 2.051996 -0.288079 1.355886
H -1.383561 1.358250 1.431434
H 1.689487 -1.108028 -1.009659
H -2.305892 -0.166020 1.850879
H 3.489378 -0.048448 0.373145
H -1.523676 -2.420005 0.748031
H 0.132479 -2.148079 1.129034