23
H14 C7 O2
C 2.011330 1.111636 -1.972569
C 0.776749 -0.413763 1.128182
C -0.305590 0.396347 -1.376534
C 1.020959 0.855179 -0.806879
O -0.602231 -2.081429 0.302157
C -1.286036 0.239993 -0.163139
C -0.671573 -0.784889 0.898311
C -1.437435 -0.788700 2.200915
O 1.611327 -0.209768 -0.027271
H 1.271931 -1.282608 1.616876
H -1.030542 -1.499400 2.840426
H 1.747080 2.016374 -2.462337
H -1.515729 -2.248051 -0.040447
H -0.675183 1.170375 -2.007416
H -2.259857 -0.121986 -0.511524
H -1.420178 0.237191 2.645287
H -1.399405 1.159499 0.352027
H -0.170826 -0.576197 -1.885666
H 0.988736 1.673865 -0.236103
H 0.837095 0.485076 1.771626
H 3.036789 1.289050 -1.586960
H 2.022539 0.360448 -2.680292
H -2.549928 -0.988257 2.001306