16
H7 C6 N1 O2
C 0.147634 -0.621251 -0.120367
C 0.998214 -0.531937 1.128150
C -0.499584 2.147181 -0.251988
C -0.410781 0.789961 0.299303
N -0.068880 0.408705 1.654066
C -1.382914 -0.185205 0.969638
O -0.509724 2.349293 -1.515577
C 0.610519 -1.085395 -1.511199
O -1.052619 -1.294052 0.299146
H 1.166865 -1.386219 1.712860
H 1.711386 -0.875553 -1.601131
H -2.372285 0.001204 1.323002
H 0.057501 -0.537270 -2.275028
H 1.840585 0.047882 1.015518
H -0.695250 2.925818 0.475661
H 0.459343 -2.153136 -1.602045