19
H10 C7 O2
O -0.149933 1.305869 1.842078
C 0.504363 -1.112404 -1.917401
C 0.662975 -0.557229 0.581000
C 0.566480 1.801154 0.685493
C -0.103108 -0.654159 -0.617607
C -1.701874 -0.357135 0.960954
C -0.372101 -0.143698 1.635435
C -1.454138 -0.425923 -0.360795
O 1.475915 0.804881 0.261858
H 1.337910 -1.319408 0.817211
H 0.038859 -2.138209 -2.172661
H 1.057255 2.664964 1.020510
H 1.616796 1.132909 -0.867823
H -2.294227 -0.484802 -1.140251
H -0.144836 2.018405 -0.124140
H 1.571147 -1.208019 -1.904569
H -2.627985 -0.308518 1.439709
H 0.238774 -0.436171 -2.747858
H -0.222277 -0.582508 2.608847