16
H7 C6 N3
C -1.638225 -2.367035 0.090458
N 0.500340 -1.511525 0.171885
C 1.398703 -0.348731 0.222278
N -2.419334 -3.281821 0.060515
C -0.730221 -1.283820 0.114064
C 0.798596 1.085369 0.302254
C -0.705200 1.168255 0.193068
C 1.531029 0.583431 -0.937674
N -1.403747 -0.153800 0.068142
H -1.070494 1.639456 1.206749
H -1.001407 1.885882 -0.541224
H 1.256005 1.781754 0.990256
H 2.285752 -0.562524 0.822754
H 1.023033 0.482560 -1.778977
H -2.376657 -0.150683 0.072439
H 2.551808 1.033224 -1.056961