19
H10 C8 O1
C -1.283152 -1.461508 0.751774
C 0.281833 0.898983 0.842123
C 1.122986 1.261411 -0.442028
C -1.956065 -0.389190 0.000272
C -0.534716 -0.312572 0.139927
O 0.348066 -0.681363 -2.228582
C 0.369004 0.397773 -1.328343
C 1.673804 0.809689 0.936085
C 0.822648 -0.820623 -0.815007
H -1.436013 -1.550920 1.804598
H -1.237939 -2.435699 0.263243
H 2.145561 1.641733 1.525792
H -0.039648 0.547663 -2.451422
H -2.434348 -0.525792 -0.923899
H -2.585747 0.297985 0.636984
H 1.392568 2.255734 -0.765258
H 1.548702 -1.410810 -0.541263
H 2.150105 -0.086520 1.164694
H -0.347636 1.564029 1.430320