21
H12 C8 O1
C -0.644346 -0.402039 -0.842654
C -0.817529 -0.062715 1.501764
C 1.097475 1.744565 -1.115692
C 0.264889 -1.133114 1.092305
C -1.713371 0.003815 0.282514
C 0.709283 0.347425 -0.732248
O 0.066591 1.054954 1.413647
C 1.045309 0.138734 0.759078
C -0.241937 -1.696936 -0.227441
H 0.746342 1.956069 -2.178127
H 0.600052 2.525765 -0.568886
H 0.530961 -2.233754 -0.903975
H -1.072854 -0.300665 -1.849913
H 2.123667 2.032985 -1.126631
H -1.327832 -0.117598 2.495313
H 0.654621 -1.777367 1.878850
H 1.465183 -0.252660 -1.299439
H -2.055234 1.006683 0.159184
H -2.447306 -0.731465 0.292599
H -1.019338 -2.448190 -0.167645
H 2.035378 0.345470 1.137399