21
H12 C9
C -1.456457 0.064687 0.560522
C 0.606477 0.674930 -0.651458
C 0.734954 -0.748497 -0.015891
C -0.701778 1.182815 -0.221309
C -1.111617 -3.387112 1.453346
C 0.439851 1.822985 0.341406
C -0.775517 -2.200170 1.265786
C -0.347957 -0.839538 1.022813
C 1.265283 0.961784 -1.920525
H 1.786095 -0.942648 0.363607
H -2.038461 0.554044 1.436043
H -1.488045 -4.296606 1.645559
H -2.186882 -0.393360 -0.053566
H 0.094708 -0.467469 1.995620
H 0.985546 2.016187 -2.289168
H 0.779708 1.627801 1.348701
H 0.959403 0.286066 -2.717892
H 2.390830 0.971076 -1.876156
H 0.786145 2.799478 0.020470
H 0.578658 -1.483956 -0.810810
H -1.300972 1.797516 -0.897109