27
H18 C8 O1
C 0.165916 -2.545866 -0.917419
C 0.948617 1.946527 -0.466256
C -1.046747 -0.069094 0.569094
C -1.286397 1.448341 0.654897
C 1.398882 0.488394 -0.313305
O -1.616122 -0.727803 1.724764
C -0.603660 2.238559 -0.479716
C 0.736934 -1.917385 0.379313
C 0.446001 -0.396119 0.597106
H 0.545623 -2.484440 1.345309
H 0.921314 1.844844 -1.865735
H -1.491522 -0.421458 -0.454555
H 1.642292 2.655588 -0.749937
H 1.800709 -1.984570 0.333738
H 2.368559 0.454045 0.098362
H 1.139534 2.281621 0.754626
H -0.928960 1.825282 1.623980
H -2.582672 -0.557535 1.682112
H -1.014923 1.842193 -1.359006
H 0.719860 -0.145814 1.621540
H -0.839930 3.240196 -0.321233
H -0.786218 -2.319528 -1.357913
H 0.766086 -2.049444 -1.776088
H 0.465962 -3.561762 -1.052886
H -0.953096 -2.727386 0.312900
H 1.463201 -0.017470 -1.270900
H -2.379232 1.660140 0.687198