17
H10 C5 O2
C 0.286257 -1.002297 -0.756463
C 1.362734 -0.194114 1.457273
C 0.960280 0.069236 0.038613
O -0.427656 -0.587774 -1.925621
C -1.367894 0.450693 -1.770580
C 0.237330 0.732542 1.267070
O -1.034986 0.256724 1.448252
H -1.317401 0.982534 -2.724591
H 1.195546 -1.168476 1.828031
H -1.172576 -0.075511 2.373932
H -0.414909 -1.555464 -0.106611
H -2.254726 -0.124385 -1.562711
H 2.338129 0.196228 1.799254
H -1.284486 1.180310 -1.065255
H 1.022000 -1.750589 -1.165368
H 0.318497 1.776053 1.381160
H 1.553886 0.814285 -0.516373