17
H9 C7 N1
C 1.512614 0.659222 0.303278
C 1.266458 -0.743902 -0.387153
C -0.274086 -0.767145 -0.730478
C -0.724580 1.605139 0.344786
N 0.531703 1.596860 -0.342898
C -0.582215 0.756625 -0.779995
C -1.855570 -2.045233 0.944659
C -1.168064 -1.408724 0.231382
H 1.821708 -0.794032 -1.238273
H 2.497483 0.999494 0.023715
H -0.382234 -1.251532 -1.667309
H 1.421437 0.672772 1.349622
H 1.523639 -1.593399 0.339176
H -1.207199 2.612794 0.269571
H -0.724186 1.113145 1.428447
H -1.087828 1.118733 -1.721169
H -2.569070 -2.530821 1.632641