23
H14 C9
C 1.124972 -0.495192 0.309964
C 0.963133 1.090380 -1.231074
C -0.291205 -1.122621 0.365577
C 1.135683 1.016740 0.263084
C -2.402489 -1.534508 1.715062
C 1.690597 -0.277788 -1.109335
C 0.167920 1.863117 -2.229004
C 2.289013 1.074961 -0.695566
C -1.156754 -0.611468 1.559763
H 0.889496 1.758687 0.958715
H -3.026698 -1.094634 2.511223
H -0.143656 -2.234348 0.533238
H 3.214149 1.590701 -0.763973
H 0.622002 1.860993 -3.144047
H -0.545093 -0.619292 2.489450
H -3.008084 -1.562791 0.819389
H -2.144773 -2.463566 2.038603
H -1.450746 0.383778 1.369836
H 1.994183 -0.928309 -1.892593
H 1.879860 -0.924349 0.982224
H -0.045299 2.888416 -1.902627
H -0.870184 1.350487 -2.390339
H -0.886029 -1.009406 -0.557572