15
H6 C6 O3
C 0.626499 -0.434569 -0.663217
O 0.550551 1.754911 -1.723666
C 0.702683 0.312599 2.035881
O -1.727706 -0.648385 -0.249681
C -0.555264 -0.775945 -0.038606
O 1.874437 0.196643 1.310151
C 0.717737 -0.737682 0.848203
C -1.463215 0.299910 -1.359671
C 0.067549 0.788505 -1.366581
H 1.184708 -1.083400 -1.353251
H -2.172004 1.173936 -1.277239
H -1.698383 -0.241575 -2.291363
H 1.013967 -1.753182 1.138361
H 0.096848 1.213506 1.893017
H 0.781599 -0.065258 3.097651