12
H5 C4 N1 O2
O -1.253370 0.243005 1.034624
C -1.104102 0.975496 -0.088938
C 1.016750 -0.389553 -0.538932
O -1.946597 1.800744 -0.403697
C 0.070006 0.679577 -1.022239
C 0.678431 -1.027813 0.661090
N -0.354214 -0.753279 1.342157
H 1.365907 -1.840966 1.046102
H -0.325915 0.454034 -2.008270
H 0.535309 1.667346 -1.068205
H 1.919953 -0.569110 -1.083489
H -0.602122 -1.239483 2.129787