21
H12 C9
C 1.829547 0.395647 -1.259559
C 0.188183 0.112535 0.643981
C 0.518793 -1.165403 0.083089
C -0.031496 0.860066 -1.743672
C 0.841864 -0.181835 -2.276328
C 0.702076 1.142989 -0.475118
C -1.796470 -0.417004 2.267964
C -1.291589 0.437095 1.057463
C 1.399962 -1.015512 -1.116122
H -1.191797 -0.184554 3.182443
H 2.045382 -1.825989 -1.404912
H -1.943055 0.181715 0.222500
H 0.756479 0.272921 1.547311
H 0.901849 -0.448955 -3.321026
H 0.782594 2.192757 -0.182931
H -1.673552 -1.522925 1.988554
H 2.888214 0.700342 -1.343779
H -1.459763 1.422261 1.283653
H -0.934492 1.401017 -2.200855
H -2.847556 -0.262928 2.468947
H 0.314864 -2.094258 0.578408