21
H12 C8 O1
C -0.503415 0.636485 -0.874251
C -0.165822 -1.145064 0.319923
O -1.533286 -0.904859 0.618411
C -1.063564 0.472686 0.598843
C 0.247286 -0.439988 -0.992199
C 0.248753 -0.090206 1.368062
C 0.144183 -0.407113 2.829361
C 1.493872 -0.683047 -1.687636
C -0.938671 1.584781 -1.877100
H -0.867420 -0.823558 3.063106
H 0.362741 0.457139 3.421600
H -0.128511 2.175728 -2.373099
H -1.376977 1.005249 -2.805285
H 1.624826 -0.102303 -2.590322
H -1.815665 1.225156 0.924996
H 2.368500 -0.567608 -1.046010
H 0.069883 -2.203051 0.408229
H 0.862850 -1.175565 3.103034
H -1.769277 2.267558 -1.545913
H 1.536815 -1.809775 -2.028812
H 1.202885 0.527374 1.165109