17
H8 C6 O3
O 1.609570 0.190530 -0.598370
C 0.148677 -1.068577 0.746535
C 1.387627 -0.257450 0.777727
C -0.502587 -0.808093 -0.829130
C 0.170006 0.300917 -1.185368
O -2.553776 1.083615 1.399079
C -1.021834 0.908012 -0.391830
C -1.616897 0.567832 0.934686
O -0.882013 -0.474574 1.635962
H 0.407580 0.946473 -2.072162
H 1.233853 0.565899 1.439038
H -1.176435 -1.534903 -0.766568
H 0.199272 -2.104010 1.064728
H -0.518230 -0.478272 -2.276494
H 2.208513 -0.867009 1.104068
H -1.125132 1.953612 -0.564806
H 2.031824 1.076033 -0.417092