19
H10 C7 O2
C -2.666690 0.768706 -2.247697
C -1.941187 0.227315 -1.401677
C 0.891141 0.446444 0.673200
C 1.621315 0.954412 -0.567049
C -1.220092 -0.580423 -0.430261
C 1.208529 -0.855946 1.274517
O 2.444115 -0.958942 1.869331
C -0.572277 0.379708 0.469477
O -2.015515 -1.543022 0.245691
H -3.310142 1.280215 -2.883137
H 1.129309 1.114183 1.592034
H 2.655666 1.105102 -0.374824
H -0.443559 -1.087156 -1.003918
H 0.648197 -1.709159 1.119364
H 2.696488 -1.761395 2.265931
H -1.135093 1.155465 0.968773
H -2.698827 -1.045720 0.753238
H 1.520134 0.215768 -1.360102
H 1.188505 1.894427 -0.962919