15
H6 C5 N2 O2
C 1.420600 -0.707604 -0.558679
C -0.209764 1.202574 0.409632
N -2.280704 2.435201 0.360901
C 0.966866 -1.151399 0.791769
O -2.031399 0.340321 -0.539582
C -1.568747 1.469566 0.128156
C 0.105229 -0.159577 -0.031789
O 1.471419 -1.575626 -1.600783
N -1.091281 -0.612052 -0.654292
H 0.465266 1.940954 0.891944
H 2.248723 -0.004011 -0.559660
H 1.493914 -0.758945 1.610613
H 1.660907 -2.548618 -1.143636
H -3.274489 2.278701 -0.002946
H 0.623463 -2.149474 0.898348