12
H4 C4 N2 O2
O 1.352834 -2.574127 0.717058
N 0.558280 -0.786414 -0.556750
C -0.104607 0.320573 -0.337612
C 0.713249 -1.506029 0.587081
C -0.499379 0.331779 1.134921
N 0.080992 -0.913358 1.638597
C -0.379199 1.273836 -1.351616
O -1.012650 2.334656 -1.055124
H -1.569198 0.319098 1.264516
H 0.027818 1.129994 -2.333236
H 0.940834 -1.093123 -1.397245
H -0.108967 1.163105 1.689408