17
H9 C6 N1 O1
C -1.588003 -0.791969 1.474324
C -0.409220 0.841434 0.095612
C 0.894446 0.738823 -0.725946
N -0.668105 -0.587653 0.461844
O 0.370398 -0.411143 -2.862787
C 2.157907 0.188489 -0.025463
C -1.060506 -0.150161 -0.858695
C 0.123770 -0.124402 -1.726251
H 2.999094 0.080397 -0.712568
H -2.147443 -1.805724 1.325784
H 1.153154 1.705026 -1.136310
H -2.343884 -0.053772 1.608170
H 2.551320 0.863074 0.764246
H -2.158449 -0.370114 -1.202014
H 1.961322 -0.814040 0.436004
H -0.800383 1.629035 0.623385
H -1.035415 -0.937311 2.460655