18
H9 C6 N1 O2
C -0.171879 -1.500153 -1.018118
N 0.446361 0.963347 -0.616314
C -1.440451 1.712510 0.187811
C -0.039964 -1.495128 0.426840
C 1.201743 -1.699245 1.232947
O 0.250242 3.301832 -0.687455
C -0.373735 -0.207642 -0.300381
C -0.281616 2.106590 -0.363553
O -1.632896 0.367287 0.064923
H -0.455709 3.907100 -0.386245
H 2.092301 -1.219684 0.729107
H 1.112682 -1.322657 2.190019
H -2.276506 2.237386 0.653807
H -0.908048 -1.883938 0.964968
H 1.296376 1.013857 -1.171695
H 0.764917 -1.591742 -1.635328
H -1.021870 -1.945332 -1.546850
H 1.438035 -2.744404 1.275545