20
H11 C6 N1 O2
C 0.815670 -0.385093 0.027574
C 1.976194 0.002280 0.875533
C -1.664412 0.004716 -1.714915
O -1.504987 2.298327 0.925079
C -0.597366 1.536921 1.065743
N -1.840781 -1.309754 -1.128522
C -1.754941 -0.219361 -0.288339
C -0.498770 0.043244 0.643176
O 3.267265 -0.640955 0.459568
H -2.699176 -0.017133 0.221193
H 0.801831 -1.530534 -0.050953
H 2.201710 1.077355 0.850964
H 0.986178 -0.030107 -1.011423
H 1.935590 -0.286717 1.873166
H -0.965655 -1.829343 -1.168241
H -0.734094 0.290450 -2.195549
H -2.472724 0.338823 -2.264086
H 0.270955 1.927244 1.667096
H -0.652878 -0.455312 1.615283
H 3.130426 -0.815036 -0.402298