20
H11 C7 N1 O1
C 0.393739 0.702638 0.763665
C 1.387861 -0.241048 -1.341684
C 0.628576 -0.571726 -0.077285
N -1.161429 -1.413706 -1.560720
C 0.196492 0.377423 2.275497
C -1.477482 2.271408 -0.171204
O -1.320045 -1.860025 0.655209
C -0.680009 -1.330974 -0.320877
C -0.666322 1.584815 0.257518
H 1.033883 -0.216130 2.661993
H 0.036320 1.263595 2.822543
H -0.711098 -0.293254 2.350121
H 0.952979 0.667624 -1.916945
H 1.447345 -1.032669 -2.077157
H 1.365873 1.276884 0.782901
H 1.247144 -1.285720 0.504389
H -2.256743 2.947237 -0.485616
H -2.092996 -1.812989 -1.712036
H -0.740691 -1.067778 -2.337779
H 2.416627 0.034392 -1.072522