11
H5 C4 N1 O1
C 1.532243 0.771962 0.503193
C -0.296588 -0.258952 -0.101636
C 0.767543 1.680907 -0.071825
C -1.256557 -1.334250 -0.231829
N -0.402103 1.014044 -0.481953
O 0.888461 -0.476853 0.531857
H -0.839461 -2.256960 0.006853
H -2.139612 -1.207528 0.479359
H 0.973260 2.665197 -0.314200
H 2.515122 0.721696 0.930077
H -1.742316 -1.319245 -1.249909