18
H9 C5 N3 O1
C 1.816546 -0.933858 -1.071236
N 0.890549 -1.952525 -0.798127
C -0.046129 -1.513830 0.295622
N 1.634193 0.324785 -0.876602
C -1.049783 1.941888 0.648243
C -1.520055 0.448305 0.736458
O 0.344292 1.972147 0.163651
N -0.538578 -0.171023 -0.042166
C 0.460230 0.781758 -0.198760
H 2.682692 -1.283306 -1.604374
H 0.451420 -1.545276 1.248322
H -1.447427 0.137442 1.765870
H -0.928689 -2.169048 0.301363
H 2.348073 1.047063 -1.076663
H -1.648041 2.499509 -0.110730
H -1.191001 2.480423 1.607101
H 0.243125 -2.398293 -1.288784
H -2.501433 0.333782 0.300806