11
H2 C4 N4 O1
O 1.672657 -1.110711 0.366513
C 0.019044 2.796069 -1.735999
N 1.453271 -0.053979 -0.318302
C -0.607277 -1.232145 0.876686
C 0.247538 0.490356 -0.381699
N 0.745720 -1.727015 1.075782
N -0.770910 -0.020830 0.221079
C 0.113510 1.733121 -1.090063
N -1.543580 -1.862447 1.365769
H -1.191721 -2.667759 1.862427
H -0.138254 3.655341 -2.242192