17
H8 C7 O2
O -1.651443 -0.258187 -0.682921
C -1.388033 -0.850039 0.666560
C -0.882857 0.242700 1.526286
C -0.251485 -0.520452 -0.936458
C 1.450314 1.520308 -1.184524
C -0.306137 -1.670592 0.061242
C 0.188719 0.915248 1.010284
O 2.044446 0.388082 -0.478349
C 0.647050 0.605748 -0.288497
H 0.660669 -1.877349 0.647783
H -0.085198 -0.629102 -2.018940
H 1.764420 2.459946 -0.736340
H 1.446735 1.446350 -2.206309
H -2.329715 -1.327510 1.019881
H -1.323398 0.476886 2.471596
H 0.641528 1.719007 1.566064
H -0.625619 -2.641026 -0.437372