17
H8 C6 O3
O -1.123834 1.510276 0.544874
C -0.653846 0.554285 -1.534019
C -0.289016 0.381002 0.793227
C -0.291429 -0.407872 -0.496991
C 0.889904 0.591748 1.689436
O 0.423884 0.133932 -2.341742
C -1.029779 -0.911363 0.677443
C 0.858567 -0.871560 -1.397769
O -0.672711 1.785162 -0.807621
H 0.839160 -1.886647 -1.754764
H 0.600650 0.962339 2.683762
H -0.649151 -1.754979 1.280838
H 1.451174 -0.350723 1.902426
H -2.163923 -0.918753 0.613871
H -1.643672 0.507910 -2.073044
H 1.588849 1.243992 1.288585
H 1.865176 -0.568751 -1.068530