23
H14 C9
C -1.037642 -0.737548 -0.067542
C 1.893843 2.025785 0.445418
C 0.485960 1.411204 0.648742
C 0.742773 -1.246287 0.560520
C -2.306313 -0.182336 -0.742126
C 0.744125 -0.472371 -1.403398
C 0.029813 -1.694332 -0.767035
C 0.296235 0.108358 -0.049153
C -0.855903 -1.332442 1.257546
H -1.244781 -2.219950 1.526613
H 2.026062 2.941572 0.969680
H -1.156645 -0.592722 2.128527
H 2.090385 2.168607 -0.578655
H 0.223592 1.344990 1.750505
H 1.832926 -0.542898 -1.572725
H -2.107097 0.296340 -1.722286
H -0.077912 -2.650028 -1.119726
H -2.965119 -1.041567 -0.992199
H -0.231925 2.136341 0.252123
H 1.529860 -1.537916 1.111448
H -2.871244 0.534841 -0.123259
H 2.650526 1.333303 0.829086
H 0.308471 -0.050926 -2.342096