20
H12 C7 O1
C -0.072818 -0.271830 0.242318
C 0.242499 2.339896 0.209471
O -0.924580 2.421403 -0.610223
C -1.683601 1.292032 -0.568134
C 1.168736 -2.370563 -0.196431
C 0.189867 -1.646565 0.711699
C 0.513649 0.852475 0.829027
C -1.063224 -0.003679 -0.890291
H 1.257310 0.702471 1.620561
H 0.583688 -1.611169 1.751312
H 1.386034 -3.368281 0.175544
H -0.623923 0.061399 -1.884953
H 0.768994 -2.471412 -1.220939
H -0.473427 2.739474 1.233199
H 0.800085 1.898901 -1.107879
H 0.953145 3.002992 0.285821
H -1.893781 -0.819430 -0.962480
H 2.197113 -1.890443 -0.253286
H -0.747544 -2.191260 0.713641
H -2.578226 1.333549 -0.078006