17
H9 C6 N1 O1
C -1.438503 0.567732 0.617437
C 1.282022 -0.760916 -0.011972
C -0.718054 -0.530701 -1.439093
C -0.123452 1.314610 0.586661
C 1.055146 0.416660 0.962587
C -1.637615 -0.276319 -0.336346
N 2.318096 -1.435849 0.216778
O 0.416564 -1.184708 -1.006543
H -0.439280 0.454001 -1.937572
H 2.409290 -2.221055 -0.426285
H -0.154939 2.094843 1.380673
H -2.159500 0.681165 1.396506
H 0.016289 1.884870 -0.320013
H 0.984773 0.061751 1.983969
H -2.629622 -0.837396 -0.358870
H -1.158896 -1.204325 -2.234366
H 1.977670 0.975640 0.926480