17
H9 C6 N1 O1
C -0.827060 0.706021 -0.751952
C -0.533890 -0.166315 1.421492
C -0.418642 -1.302011 0.392364
C 0.765976 -1.076470 -0.405219
C 0.066277 0.911557 0.512708
O -0.367024 1.394679 -1.852513
N -0.667005 -0.772998 -0.915075
C 1.412845 0.193984 0.027397
H 2.071347 0.060236 0.842847
H -1.596053 0.097112 1.710500
H -0.004503 -0.283195 2.344971
H -0.473172 0.792484 -2.569282
H 1.874650 0.700590 -0.720017
H 0.165162 1.927637 0.880400
H 1.253103 -1.839917 -0.984168
H -1.898473 0.981703 -0.541811
H -0.823537 -2.325084 0.607375