15
H7 C5 N1 O2
O -0.368799 -1.665161 -0.973315
C 0.267005 -0.413386 -1.002572
C 0.568300 0.384050 1.401880
C 1.177377 0.234432 -1.885631
O -1.202615 1.281111 -0.025308
N 2.332536 0.096193 -2.083322
C -0.416458 0.126308 0.208813
C -1.107971 -1.152914 0.196051
H 1.132203 -0.566994 1.562821
H 0.412184 1.006500 -2.465205
H -0.015183 0.524416 2.326272
H 1.278962 1.145514 1.308197
H -0.910270 1.999422 0.503345
H -2.159867 -1.123500 -0.098306
H -0.987418 -1.875974 1.026273