18
H9 C6 N1 O2
C -0.888080 -0.420383 0.513646
N -0.117728 -0.657104 -0.751170
C 0.481209 -1.852386 -0.862116
C -0.133200 0.437877 1.450392
C 0.490369 1.602187 0.668885
O -1.355406 -1.515182 1.288065
C 0.094159 0.603022 -1.537796
O 0.444361 -2.801050 -0.040241
C 0.585762 1.667279 -0.634360
H 1.011475 2.505264 -1.151153
H -0.516037 -2.064216 1.587277
H -0.805948 0.811646 2.217066
H -1.877899 0.063541 0.138860
H 0.825110 0.332248 -2.300596
H 0.617177 -0.048422 1.923371
H 1.094556 -1.941561 -1.765894
H 0.877601 2.378141 1.283677
H -0.827455 0.899101 -2.027887