16
H7 C5 N3 O1
C 0.333786 1.314407 -0.187704
N 1.165648 2.181592 1.358867
C 0.692698 0.881321 1.094326
O -0.218671 0.956909 -1.337264
C -0.873956 -1.211678 -0.154104
C -0.421004 -0.482408 -1.420261
N 0.411106 -0.121180 1.740945
C 0.044716 -1.319734 1.046864
N 0.894502 2.594071 0.118933
H 1.003364 -1.864294 0.675220
H 0.986533 3.371906 -0.411970
H -1.858976 -0.719459 0.160049
H -0.441161 -2.012918 1.765241
H -1.111774 -2.224860 -0.455770
H -1.168636 -0.515855 -2.224318
H 0.561804 -0.827841 -1.769069