18
H9 C7 N1 O1
C 0.608911 1.189813 0.603209
C 1.140758 0.254903 -1.565042
O -0.329611 0.270691 2.685935
C 1.239922 1.187036 -0.467044
C 0.283660 -0.067388 1.428317
C -0.661712 -0.969529 0.664343
C -0.860532 -1.059724 -0.804424
C 0.117319 -0.652505 -1.773389
N -1.807106 -0.281594 -0.047118
H -1.383999 -2.030603 -1.131905
H -0.814064 -1.902361 1.233339
H -1.680765 0.774419 -0.300481
H -0.019478 -1.149555 -2.772441
H 0.376531 2.007882 1.110906
H 1.192127 -0.587027 1.605164
H 1.893854 0.297948 -2.376849
H 1.917650 2.052020 -0.651502
H -1.213453 0.665561 2.558977