15
H7 C4 N3 O1
C 0.413445 0.326399 -0.703914
O -1.532095 1.752831 -0.800018
C -0.836529 0.892317 -0.186703
N 0.020016 -0.602709 -1.741623
C 1.329166 -0.192033 0.412646
N 0.601204 -1.011160 1.446024
C -0.573923 -0.674797 1.702617
N -1.298713 0.278894 1.024081
H 0.975735 1.223405 -1.218737
H 0.840716 -1.030234 -2.139449
H 1.773638 0.561509 0.921589
H -2.225401 0.566419 1.248331
H 2.088666 -0.861104 -0.032950
H -1.078233 -1.073911 2.509070
H -0.497697 -0.155835 -2.440983