16
H7 C6 N1 O2
C 0.215101 0.303985 0.535414
C -0.343701 1.082384 -0.679079
C -1.751697 1.736064 -0.375529
N -0.515176 -0.922475 0.715177
C 1.617193 -0.159758 0.208670
C 1.678818 -1.450687 -0.048718
O -2.037208 2.873027 -0.624270
C 0.277786 -2.050395 0.298973
O -0.107701 -3.193299 0.246465
H 2.500852 -2.038943 -0.438147
H -0.503407 0.379848 -1.526380
H 2.437313 0.579295 0.183539
H 0.279919 1.910692 -0.965032
H 0.159127 0.944691 1.382493
H -1.460427 -0.996581 1.056331
H -2.446785 1.002149 0.030101