17
H8 C6 N2 O1
O -0.027310 2.103050 2.642549
C -0.150182 1.143518 1.763146
C -0.027563 -0.275304 -0.837947
C 0.319271 1.749567 0.413241
C -0.204466 -0.928243 -2.182005
N 0.572180 -0.117184 2.224743
C 0.442389 -1.206692 1.517545
C 0.378552 1.026868 -0.705979
N -0.297492 -1.124615 0.252206
H 0.349787 -1.818241 -2.299688
H 0.759020 1.448169 -1.620678
H -1.254338 0.778209 1.675032
H 0.714110 -2.125148 1.837727
H 0.741549 2.715180 0.435772
H -0.045877 -0.232396 -2.934616
H -0.944147 -1.902034 0.093391
H -1.325496 -1.234718 -2.274461