18
H9 C7 N1 O1
C -0.945920 0.848904 -1.755305
C 0.905255 -1.268582 0.771620
O 1.358118 0.378463 -1.196502
C -0.734094 -0.117919 -0.651664
C -0.016309 1.529181 0.518077
C -0.410430 -0.878070 1.415815
C 0.664869 -0.843725 -0.718712
C 0.241052 1.154076 -0.929865
N -1.032008 0.290121 0.720155
H 0.708753 -1.666664 -1.494340
H 1.135949 -2.358459 0.837730
H -0.703345 0.554718 -2.757694
H -0.293585 -0.640133 2.443871
H -1.862518 1.407787 -1.581714
H -0.527183 2.505096 0.622473
H 0.811913 1.487470 1.194333
H -1.110581 -1.670478 1.481450
H 1.810072 -0.711784 1.080263