18
H9 C7 N1 O1
C -0.946144 -1.282799 0.002484
C -1.500015 -2.376269 0.215558
O 1.050972 -0.011330 0.039412
C 0.238968 1.874504 -1.169171
N -0.837778 0.932769 -0.777822
C -0.292919 -0.099673 -0.258393
C -2.181437 -3.608467 0.416701
C 1.791584 2.131339 0.894197
C 1.428164 1.312347 -0.331680
H 0.420612 1.878771 -2.204122
H 2.407885 1.215100 -0.943640
H -3.231958 -3.443696 0.652001
H 0.887048 2.222108 1.542285
H -0.068639 2.917046 -0.848983
H -1.756004 -4.203857 1.198956
H 2.567115 1.664442 1.470186
H 2.179127 3.119096 0.610947
H -2.156543 -4.241422 -0.508888