17
H8 C7 N2
N -4.395076 1.819215 -0.960124
C -1.419659 0.232000 -1.109583
C -3.505015 1.317294 -1.467239
C 2.784293 -1.060222 0.892888
C -0.582959 -0.126793 -0.306508
C 0.376949 -0.608143 0.658298
N 1.706022 -0.224420 0.444243
C 0.995266 0.438116 1.517462
C -2.430419 0.653628 -2.171906
H -1.955964 1.377824 -2.833340
H 2.951799 -1.781833 0.077736
H 1.113216 0.119141 2.601237
H 3.666807 -0.439128 0.992024
H 0.088649 -1.525167 1.160201
H 0.813445 1.548871 1.397956
H -2.740571 -0.196316 -2.668125
H 2.533249 -1.544080 1.774781