17
H8 C6 N2 O1
C -0.631177 1.520295 -0.636606
C -0.329461 -2.143127 -0.013292
N -0.372054 -0.790737 -0.244498
C -0.886143 0.163830 -1.284021
N 0.841047 -1.052652 1.554091
C 0.500702 -2.239942 1.085043
C 0.417048 1.306801 0.589622
C 0.430548 -0.198023 0.762453
O 1.701105 1.835337 0.178001
H 2.243298 1.523536 0.923584
H 0.827174 -3.177043 1.567194
H -1.948523 -0.020879 -1.469211
H 0.052991 1.853706 1.454826
H -0.722730 -2.798510 -0.655253
H -1.573045 1.903091 -0.241345
H -0.229530 2.255152 -1.335725
H -0.321245 0.059179 -2.234855