20
H11 C7 N1 O1
C -1.195137 -0.311982 -1.554963
C -2.422231 0.482275 -1.744556
C -1.120735 0.933459 -2.397506
C 1.088442 0.099969 1.636435
O -0.959086 -0.947635 0.745793
C -0.177715 -0.613062 1.893239
N 0.540542 0.593856 0.157038
C 2.555891 -0.408135 1.246864
C -0.474994 -0.126647 -0.177604
H -1.124982 -1.233536 -1.988406
H -1.014479 0.759653 -3.445974
H -3.171465 0.017690 -2.451059
H 2.634179 -1.526627 1.010208
H -2.844027 1.017023 -0.925740
H 1.411325 -0.470741 3.073226
H 3.421314 -0.209834 1.965010
H 2.945872 0.068950 0.309120
H -0.650738 -1.048685 2.732616
H -0.645986 1.805900 -2.066801
H 1.204049 1.118119 1.983107