16
H8 C5 N2 O1
C -0.382451 2.187229 0.156321
C -0.811702 -0.987328 0.583646
N -0.055972 -0.236062 -0.237489
C -0.325238 1.064158 -0.836624
C -0.194161 -2.094678 0.925136
N 1.065097 -2.116734 0.257959
C 1.174737 -0.920021 -0.530341
O 2.114257 -0.540696 -1.240321
H -1.193711 2.115444 0.881521
H -1.244090 0.986367 -1.379768
H 0.469330 1.260941 -1.602158
H -0.576566 3.220474 -0.366560
H 0.530577 2.394324 0.657062
H -1.833492 -0.613558 0.928515
H 1.733603 -2.789283 0.253168
H -0.470235 -2.930589 1.549964