19
H10 C6 N2 O1
C 1.196923 -0.300600 -1.139421
N -2.156852 0.950095 0.980477
C 0.663839 1.154382 -1.193128
C -0.309004 -1.333267 1.870239
C 0.058408 1.576533 0.114421
C -0.981587 0.575180 0.621149
O -0.413541 -0.901957 2.904702
C 0.064875 -1.221780 -0.673682
N -0.470010 -0.817137 0.627607
H 1.567863 -0.669908 -2.123877
H 1.483108 1.844471 -1.482415
H -0.467388 2.537197 -0.007145
H -2.780541 0.178954 1.202969
H 0.846921 1.600426 0.917241
H 0.053944 -2.432262 1.676774
H 0.450427 -2.237175 -0.457627
H -0.752156 -1.320472 -1.382443
H 2.021405 -0.365060 -0.450936
H -0.076661 1.182391 -2.004878