20
H11 C7 N1 O1
C -0.683196 0.318866 1.545879
C -0.092568 0.159006 -1.003375
N 0.371048 -1.919706 -2.599673
C 1.409795 1.001658 0.176465
C -1.487376 0.758233 -1.291836
C 0.115987 -0.982934 -1.935526
C 0.829681 -1.499621 0.827376
C 0.273416 -0.105586 0.508125
O 0.954097 1.185180 -1.175863
H -0.242678 0.289478 2.562888
H -1.550257 1.043424 -2.307748
H -1.118548 1.351903 1.402591
H -1.641725 -0.408721 1.570621
H 1.328659 1.908071 0.741720
H 0.071970 -2.242366 0.817784
H 1.406599 -1.429115 1.742760
H 2.416449 0.633512 0.200323
H -1.643416 1.724008 -0.796753
H 1.584916 -1.843680 0.064638
H -2.302866 0.058377 -1.050399