17
H8 C6 N2 O1
C 0.629752 0.836576 -1.153070
C -1.152531 0.484364 -0.146599
C -0.556047 -1.821115 1.221112
N 0.751460 0.214308 0.896334
C 0.096592 1.334518 0.205941
O 0.187266 -2.640057 0.749987
N -0.554147 0.126047 -1.446342
C 1.578221 -0.131138 -0.364329
C -0.604904 -0.350279 0.997681
H 1.062666 1.478129 -1.963103
H -2.256495 0.722225 -0.158338
H 0.110709 2.346626 0.607277
H 1.526978 -1.155386 -0.787103
H -1.308922 -2.203286 1.956107
H -1.030906 0.440625 -2.267278
H -1.093915 0.099163 1.940468
H 2.614257 0.218675 -0.288733