16
H7 C7 N1 O1
O 2.319672 0.701464 1.358249
C 0.621097 1.647818 -0.051332
C 1.323205 0.499313 0.664662
C -0.048950 -1.004497 -0.906856
C -0.482474 1.483565 -0.743345
C -0.573561 -1.042076 1.132805
C 0.815024 -0.826750 0.391948
C -0.993126 0.174283 -1.027496
N -1.427926 -0.964008 -0.147840
H 0.115479 -1.742915 -1.697791
H -0.711751 -2.078768 1.537639
H 1.531249 -1.608665 0.550893
H -0.839095 -0.287549 1.857637
H -1.703818 0.070328 -1.909810
H 1.020096 2.691824 0.256572
H -0.965148 2.286610 -1.265940