15
H7 C5 N1 O2
O 0.137162 1.125426 -0.768541
C 0.088898 0.367343 1.454829
C -0.334530 -0.956749 -2.072889
O -1.474322 -0.587377 -1.299453
C 0.142851 -0.798261 0.489784
C -0.201578 -0.255210 -0.798722
N 1.309225 -0.295837 1.106192
C -0.094406 1.626337 0.526580
H -0.299184 0.360029 2.433492
H -0.046353 -2.041726 -2.075046
H 0.654264 2.438240 0.730550
H -1.093739 2.051024 0.699494
H 1.661031 -0.824858 1.861784
H -0.231094 -1.808648 0.725793
H -0.218200 -0.399723 -3.013870