17
H8 C4 N4 O1
C -0.283837 -0.626274 2.124044
N 1.505840 1.828144 -1.829914
C -0.655607 -0.644293 -0.378090
C 0.702070 0.991568 -0.959142
N -1.639951 -1.693822 -0.467709
N -0.116174 -0.134467 0.754074
C 0.822925 0.838002 0.407819
O 1.578946 1.398806 1.277369
N -0.212768 0.039172 -1.418890
H 0.270328 0.066104 2.775400
H -1.533901 -2.185892 -1.313181
H 2.079287 2.434055 -1.234999
H 0.961599 2.320001 -2.508761
H -0.491063 -0.161817 -2.356323
H -1.704727 -2.218269 0.428098
H 0.080736 -1.633376 2.275791
H -1.363721 -0.617652 2.424430