13
H7 C4 N1 O1
C -0.539586 -0.885960 -0.773336
C -1.028399 0.214687 0.162346
C 1.551971 0.199042 -0.592859
C 0.143291 0.573342 1.161667
H -0.084574 1.461126 1.739981
H -1.926879 -0.097472 0.687355
H -1.251759 -1.018704 -1.618182
H -1.295446 1.095043 -0.402980
H 0.185544 -0.279943 1.890593
H 2.521514 0.362809 -1.119106
H -0.443135 -1.818782 -0.249376
N 1.428780 0.750447 0.487666
O 0.738686 -0.555645 -1.373782