13
H7 C4 N1 O1
C 0.176936 1.117434 -0.263771
C -0.624305 -1.224298 0.383253
C 0.377432 -0.082963 0.733247
C -0.536527 -1.767386 -0.986962
H -0.906580 1.454519 -0.200877
H -0.506733 -2.051093 1.118539
H 0.223308 0.272968 1.723766
H 1.384553 -0.467397 0.597329
H 1.038210 2.890952 -0.412429
H 0.369670 0.822030 -1.286777
H -1.675536 -0.883707 0.508138
N -0.405462 -2.197905 -2.068447
O 1.085036 2.116847 0.155000