15
H6 C6 N1 O1 F1
C -0.569721 -0.696753 0.045118
C 0.592193 -1.253250 -1.798766
C -0.924758 0.917914 1.548399
F -1.265829 -2.735002 -1.002880
C 0.428442 1.193115 0.895819
O -1.320900 -0.438825 1.133451
C 1.133740 -0.070931 -1.313887
N 0.341012 0.320568 -0.260406
C -0.472970 -1.628971 -0.931155
H 1.955710 0.552013 -1.659805
H 0.602056 2.216201 0.602403
H 1.212026 0.886282 1.621717
H -0.955861 0.902468 2.629404
H -1.666579 1.608827 1.165292
H 0.911444 -1.773627 -2.674690