17
H8 C7 O2
O 1.918172 0.123956 -2.963041
C 0.838122 -0.304042 -0.914346
C -0.779361 -0.005975 0.828468
C 0.452606 -0.851760 1.220096
C 1.220043 0.113971 0.410981
C 1.261421 0.698111 -2.212723
C -0.048391 0.700626 -0.171120
O -1.501684 0.604996 1.862887
C -2.240003 -0.285554 0.865692
H 2.153189 0.632754 0.711213
H -2.638029 -1.234161 1.190341
H 0.965739 1.832146 -2.238035
H 0.094378 -1.833796 0.545047
H 0.672817 -0.974124 2.234238
H 0.834917 -1.281495 -1.162851
H -2.906201 0.327727 0.253246
H -0.297739 1.736616 -0.460114