16
H7 C6 N1 O2
O -0.655548 2.075367 -1.120196
N 0.159358 -2.480625 1.294672
C 0.026448 -1.408129 0.625605
C 1.243082 -0.459699 0.532084
C -1.209347 0.206040 -0.548571
C 0.836196 0.875442 -0.156433
C -0.578137 1.395759 0.167208
O -1.137074 -1.081201 0.156833
C -0.117115 0.733769 -1.404158
H 1.615951 1.604082 -0.175004
H 1.984601 -0.987924 -0.016907
H -1.033573 1.969654 1.023290
H 1.612539 -0.261031 1.541823
H 0.206168 0.512910 -2.394453
H -0.710012 -3.030693 1.363042
H -2.243552 0.336290 -0.888831