17
H9 C6 N1 O1
C 1.578102 -0.020236 -0.031949
C 0.164848 -0.544333 -0.253162
C 0.001349 -1.971765 -0.600429
C -0.856658 0.472994 -0.700717
C 0.578955 -0.059657 1.108376
C -0.828751 1.577184 0.381491
N -1.505186 2.712438 0.361041
O -0.088822 1.182017 1.451503
H 0.111485 -2.144906 -1.708441
H 0.730464 -0.701224 1.986217
H -1.004910 -2.344475 -0.308206
H 0.742080 -2.631713 -0.144768
H 2.398814 -0.754292 -0.004723
H -1.384102 3.200421 1.222373
H 1.816583 0.977386 -0.303056
H -1.861269 0.100409 -0.760180
H -0.592984 0.949757 -1.695376