18
H9 C7 N1 O1
C 0.818484 1.395025 -0.309555
C -0.186499 1.380187 0.474759
O 0.727660 -1.595161 0.310387
C 0.877484 0.212812 -1.264429
N 3.316715 -0.598900 -1.820644
C 2.227170 -0.231794 -1.491511
C -0.055296 -0.789220 -0.555472
C -1.654764 -0.529882 1.421836
C -1.009322 0.153702 0.212951
H -0.472364 2.100995 1.222378
H -1.921895 0.401606 -0.411988
H 0.447156 0.468636 -2.298488
H 1.199119 -1.050149 0.833065
H -2.252518 0.191541 2.030267
H -0.602711 -1.434098 -1.307891
H 1.628987 2.206841 -0.357290
H -2.245512 -1.393761 1.194598
H -0.841948 -0.888375 2.117031