20
H11 C7 N1 O1
C -1.983182 0.011649 -0.338932
C 0.475428 0.972516 0.966837
C -1.786242 1.383348 0.287494
N 1.417321 1.018201 1.851049
C 2.119741 -1.670985 -0.994996
C -0.765311 -0.887160 -0.195766
O 1.623079 -0.990654 0.043327
C 0.560751 -0.017673 -0.072897
C -0.692077 1.855390 0.872529
H -0.790491 -1.389005 0.794947
H 1.298010 1.771288 2.430744
H -2.814983 -0.448020 0.241893
H -0.724786 -1.575216 -0.951060
H 1.394144 -2.403295 -1.437254
H 0.714648 0.485532 -1.079374
H -0.620479 2.810256 1.286605
H -2.603747 2.088939 0.179648
H -2.304259 0.107693 -1.351267
H 2.424224 -0.897519 -1.789111
H 3.058192 -2.225286 -0.744403