19
H10 C8 O1
C 0.314940 -0.618263 -1.244137
C -1.196460 -1.342821 0.121909
O -0.056881 -1.926701 0.756383
C -1.100652 -1.217947 -1.348200
C 0.762723 1.531589 -0.088870
C 0.699933 0.879018 -1.477621
C 0.367119 0.810811 2.375972
C 0.478203 0.608465 0.907361
C 0.181782 -0.687710 0.289176
H -2.048707 -1.326683 0.783341
H 0.962032 2.565863 0.071116
H -1.754005 -0.518116 -1.848679
H 1.650389 1.007855 -2.003782
H -1.103253 -2.199365 -1.848677
H -0.125461 1.303954 -2.092637
H 1.058897 0.173899 2.840623
H -0.662347 0.442270 2.717784
H 1.100501 -1.326079 -1.567932
H 0.471268 1.839970 2.656872