16
H7 C6 N1 O2
C 0.021174 -0.679462 0.598914
C -0.038886 0.437905 -0.071689
O -0.023130 -1.856721 -0.225412
C 0.142468 -1.006371 2.018033
N -0.201982 0.908420 -2.523711
C -0.131264 -1.370655 -1.562908
C 0.045520 1.833851 0.340005
O -0.240796 -2.177209 -2.447230
C -0.086268 0.133804 -1.548604
H 0.177251 -0.123144 2.676596
H -0.727921 -1.587160 2.349183
H 0.181889 1.917016 1.550799
H -0.269489 0.355773 -3.384085
H 0.924792 2.396328 -0.094179
H 1.051465 -1.614902 2.193544
H -0.824839 2.432527 0.130793