15
H8 C4 O3
O 1.758300 -1.434160 0.146776
C -0.448886 0.656581 1.221159
C -0.334966 -0.115126 -0.099872
C -1.098877 0.979952 -0.670031
O -1.126013 1.722257 0.507691
C 1.110093 -0.435195 -0.642923
O -1.035578 -1.368925 -0.152350
H -0.571173 1.552851 -1.529642
H 2.029191 -1.002319 0.929740
H 1.726184 0.460246 -0.655793
H 0.498188 0.991002 1.576157
H -0.393386 -2.078573 0.128363
H -2.087284 0.741848 -1.065878
H 1.067372 -0.859413 -1.609523
H -1.093185 0.188985 1.916117