20
H12 C6 O2
C 0.030378 -0.458877 -0.262636
C -0.746156 -0.124523 -1.544494
O -0.770673 1.609115 0.785290
C -0.077857 0.417529 0.924519
C 0.191857 -2.694321 -1.066624
C 1.270475 0.277002 0.227924
C -0.439904 2.516600 1.781275
O 0.117363 -1.837185 0.040009
H -0.238435 -0.122555 1.859694
H -0.802187 2.115508 2.800614
H -0.731310 -2.767388 -1.555613
H -0.892807 3.455204 1.582627
H 1.012568 -2.372157 -1.727597
H 2.031681 -0.295628 0.732745
H -1.705296 -0.552706 -1.544707
H 1.616268 1.144676 -0.358138
H -0.843936 1.005581 -1.573950
H 0.674961 2.742725 1.952113
H 0.477071 -3.683791 -0.593985
H -0.174058 -0.374801 -2.459085