14
H5 C7 N1 O1
C -0.495248 0.600769 1.109575
C 2.665262 0.457926 -0.688116
C 1.454427 0.190398 -0.474321
C -0.825415 -0.056027 -1.315920
C 0.049852 -0.109490 -0.147804
C -0.208199 -1.345840 0.787175
O -0.683564 -0.468780 1.823557
C -1.456686 -0.045737 -2.284564
N -0.680775 1.876865 1.313776
H 0.707776 -1.806356 1.170952
H -2.144984 -0.011200 -3.131292
H -0.903946 -2.042767 0.459203
H 3.596615 0.707114 -0.899037
H -1.075123 2.053150 2.276839