15
H6 C5 N2 O2
O 0.090141 0.713580 -0.295870
C -1.280439 -0.066343 2.198231
C 0.570233 -1.367793 -0.967981
C -0.533641 -1.100376 1.337293
C 0.720077 0.718630 -1.503188
N 0.893617 1.897226 -2.103610
O -0.434200 -2.243741 1.591483
C -0.004139 -0.678392 0.009325
N 0.988432 -0.518831 -1.977365
H -0.582458 0.823420 2.285783
H 0.743095 -2.447867 -1.130499
H 1.602139 1.844165 -2.764962
H 1.017005 2.659680 -1.425031
H -1.613274 -0.505906 3.122810
H -2.176579 0.272544 1.623586