23
H14 C9
C 0.170554 0.922689 -0.273498
C -1.607841 0.936262 1.625044
C -0.314243 0.331164 1.012955
C 0.145417 -0.110562 -1.157984
C -0.461340 -1.202417 0.564600
C 0.871104 2.158785 -0.571023
C -1.070649 -0.974015 -0.825500
C 0.984259 -1.676025 0.047568
C 1.371987 -1.011971 -1.432034
H -0.916339 -1.859754 1.279266
H -1.087153 -1.917257 -1.452978
H 1.779369 -1.390192 0.707299
H 1.234483 -1.744459 -2.226748
H 0.463709 0.387964 1.828977
H -1.413896 1.989166 1.886519
H 0.816352 2.848732 0.348844
H -1.949053 -0.373505 -0.884081
H 0.933535 -2.783349 -0.048040
H -2.383982 0.807800 0.880980
H 1.811577 2.076606 -0.964869
H -1.921695 0.456037 2.519046
H 2.265600 -0.498593 -1.444013
H 0.278237 2.626851 -1.420334