17
H9 C5 N1 O2
C -0.700415 0.134916 -0.987389
C 0.648196 -0.578762 -1.099112
C -0.931799 0.250891 0.542152
N -0.286885 -1.047411 0.999224
C -0.206507 1.465481 1.171143
O 1.723229 0.324992 -1.095169
C 0.605318 -1.455704 0.161231
O -0.798998 1.217939 -1.726792
H -0.327860 1.514168 2.298650
H 0.870464 1.458843 0.956869
H -1.954574 0.288007 0.765013
H -0.604259 2.405548 0.808942
H 2.568334 -0.132307 -0.887941
H 1.222684 -2.408835 0.311862
H -1.523513 -0.542862 -1.427864
H -1.048672 -1.680094 1.226184
H 0.745266 -1.214813 -2.017014