15
H6 C6 O3
C -0.187349 0.768172 0.993049
O 0.515755 -1.733563 -2.563898
C -0.570142 1.918422 0.216463
O -0.495304 1.698155 1.648418
C 0.375590 -0.701443 -0.450092
O 0.847099 0.466518 -1.072611
C -0.841553 -0.665377 0.660007
C 0.439293 -1.841904 -1.378136
C 1.115694 0.158744 0.381505
H -1.813077 -0.701085 0.409355
H 0.673691 -2.770475 -0.828005
H -0.590809 -1.405870 1.414911
H 1.996409 0.046670 0.868782
H -1.587633 2.121876 -0.198932
H 0.122336 2.641144 -0.100848