17
H8 C6 N2 O1
C 2.522209 -2.037820 -0.507511
C 0.089422 -0.859043 0.341322
N -1.062040 -0.259560 0.769336
C -1.263580 0.979226 0.318880
N 0.749484 0.959538 -0.948904
C -2.586163 1.599270 0.793536
C -0.391784 1.591753 -0.573637
C 0.955349 -0.218727 -0.497775
O 2.192144 -0.775514 -0.986854
H -3.382737 1.068900 0.455076
H 2.580128 -2.033890 0.547937
H -2.705416 2.634890 0.321873
H -0.600146 2.554622 -0.929025
H -2.590166 1.691024 1.840428
H 3.438068 -2.257307 -0.958418
H 1.755829 -2.788961 -0.739388
H 0.299415 -1.848395 0.753128