16
H8 C7 O1
C 1.351907 1.010578 -0.058142
C -0.745835 0.051841 -1.301715
O -2.944567 -0.851932 -1.113093
C -1.908139 -0.458879 -1.991144
C 1.206369 0.960899 1.508205
C 1.317778 -0.411658 2.103963
C 0.193746 0.438270 -0.718562
C 1.461164 -1.523586 2.470484
H -3.593810 -1.227875 -1.627068
H 1.437106 2.053277 -0.267024
H 2.010348 1.581316 1.940971
H 1.524940 -2.554791 2.909901
H 2.274455 0.492531 -0.336938
H 0.278280 1.416281 1.783669
H -1.554314 -1.283505 -2.609644
H -2.309411 0.307238 -2.693861