11
H2 C4 N4 O1
O -0.592287 2.029570 2.106509
C -0.499628 0.338728 -2.212106
N 0.372936 -0.038845 1.860975
C -0.241142 1.121177 1.333730
C -0.239003 0.311058 -0.715304
N -0.512063 1.215079 -0.009110
N 0.347606 -0.948285 -0.346689
C 0.580924 -0.962396 1.079168
N -0.672472 0.425537 -3.229877
H 0.339455 -1.603120 -1.238145
H 1.115675 -1.888484 1.370874