20
H11 C7 N1 O1
C 2.367103 -0.366539 -0.259279
O 0.631426 0.738161 1.944030
C -1.814022 -0.863007 0.405772
C 1.140242 -1.109446 0.135253
C 0.495307 0.190755 0.631591
N 1.327976 0.697044 -0.482043
C -1.446402 1.448764 -0.575585
C -0.757982 0.102280 -0.145595
C 0.435050 -0.435433 -0.963237
H 3.081058 -0.045136 0.604708
H 2.892455 -0.692295 -1.170711
H 1.293916 1.427922 1.940940
H -2.170897 1.219478 -1.337797
H -0.655337 2.089673 -0.947951
H -1.978685 1.877550 0.283339
H -2.483995 -1.131656 -0.469372
H -1.336520 -1.790106 0.686728
H -2.419403 -0.493567 1.200132
H 1.002638 -2.158834 0.581759
H 0.396080 -0.705595 -2.062694