14
H5 C4 N1 O4
O 0.838232 -1.633891 -0.028719
C -0.484184 -1.726681 -0.461003
C 1.128388 -0.369503 0.279557
O 2.182624 -0.038175 0.673315
C -1.020200 -0.469965 -0.421793
O -1.024988 -2.829143 -0.882863
N -0.051508 0.371657 0.139399
C -0.207452 1.749610 0.406644
O 0.897700 2.424146 0.402423
H -0.713239 1.858506 1.397378
H -0.836015 2.231677 -0.346202
H -1.951578 -0.132608 -0.722311
H 1.593198 2.036432 0.392502
H -0.350956 -3.472088 -0.828329