16
H7 C6 N1 O2
C 0.156250 -1.015450 0.177777
C 1.726644 0.238910 0.513126
C 0.189107 0.234461 1.025536
O -2.161888 -0.400810 -0.607417
C 0.773712 1.231743 0.133182
N 1.293081 -0.461493 -0.738855
C 0.207757 0.490483 -1.154239
O -0.607540 0.504060 2.048812
C -0.870172 -0.648234 -0.873866
H 0.903293 2.237766 0.376744
H -1.571687 0.808694 1.621469
H 2.723671 0.182208 0.964318
H 0.141491 1.124449 -2.031559
H -2.459082 -1.245721 -0.294039
H -0.747182 -1.335954 -1.772336
H 0.302524 -1.945134 0.611367