20
H11 C7 N1 O1
C 0.824021 -1.653949 -0.313880
N -1.846742 0.649645 -0.104060
C -0.794448 0.265873 -1.056546
C -1.598559 -0.309944 1.058270
C -0.187435 0.261980 1.177761
C 1.689188 0.697308 -0.559435
C 0.463446 -0.147750 -0.229210
C -0.937546 1.492475 0.739529
O -1.052379 2.663269 0.976546
H 0.416085 0.187285 2.065086
H -0.645606 1.074967 -1.807120
H -1.749125 -1.373613 0.821758
H 1.205992 -1.857743 -1.338239
H -0.033091 -2.274586 -0.118633
H -2.163257 -0.046282 1.946067
H 1.497541 1.800655 -0.458038
H 1.625404 -1.886714 0.378038
H 2.032381 0.525516 -1.630769
H -1.242857 -0.548779 -1.640524
H 2.496978 0.480380 0.093401