15
H6 C5 N2 O2
C 0.203056 -0.031376 0.414444
C 1.339822 0.931602 0.142974
N -0.006771 -0.201297 1.812848
C 0.544101 -1.421266 -0.194299
O -1.980918 0.976499 0.490294
C -1.056404 0.605425 -0.183449
C -1.116773 0.802871 -1.688779
O -0.236118 0.427718 -2.465241
N 2.230484 1.617561 0.012297
H 1.495577 -1.809493 0.234167
H -0.245342 -2.106955 0.076240
H 0.637248 -1.337081 -1.281054
H -0.738800 0.423523 2.214315
H 0.823086 -0.311042 2.381601
H -1.892212 1.433304 -1.966347