15
H7 C5 N1 O2
O 1.522729 -0.085381 1.000120
C 0.092658 -0.108970 0.857354
C -1.763267 -0.488346 -0.925514
C 2.214469 0.747127 0.246465
O 0.150401 0.187437 -1.677722
N 3.507828 0.732628 0.285214
C -2.477604 -1.075698 0.031619
C -0.382825 -0.091949 -0.617710
H -2.874646 -0.540485 0.765973
H -2.828592 -2.034335 -0.304744
H -2.254414 -0.221222 -1.822515
H -0.152261 0.893066 1.299606
H 1.580706 1.489558 -0.305240
H 3.878537 1.530336 -0.246974
H -0.213687 -0.933751 1.414070