12
H4 C4 N2 O2
O -0.867977 0.306465 0.733333
C 0.646520 -0.451430 -1.316749
C -1.548711 0.229829 -0.557461
N 1.240550 -0.320817 -0.096155
C 0.453151 0.009558 0.819834
O -2.718635 0.454467 -0.552731
C -0.641154 -0.221256 -1.568048
N 0.897181 0.176716 2.119564
H 0.322224 0.761352 2.720678
H 1.366821 -0.783516 -2.040424
H -1.018609 -0.295986 -2.530250
H 1.868663 0.134610 2.268416