19
H10 C7 O2
C -0.540972 -0.907662 -0.751022
C -0.387111 0.516041 -0.303570
C -0.122818 0.503516 1.292293
O 2.864353 -1.553819 -1.817606
C -1.362696 0.247872 2.093550
O 1.918332 0.311428 -1.094141
C 0.689428 1.143265 -1.035835
C 1.780236 -0.925452 -1.432759
C 0.417583 -1.526620 -1.367810
H -1.147313 0.121643 3.167071
H 0.400085 1.321076 -2.058018
H 0.658852 -0.177766 1.480282
H 0.229724 1.518221 1.540218
H -1.786288 -0.759579 1.899457
H 0.353209 -2.509621 -1.852975
H 1.056767 2.090575 -0.613960
H -1.501858 -1.359689 -0.700475
H -2.188766 0.924704 1.972612
H -1.330753 1.021850 -0.417278