21
H12 C8 O1
C 0.701202 -0.686270 -0.601885
C -0.126081 0.333973 0.146125
O -2.018364 -0.031323 -1.412878
C 0.199749 1.759855 -0.343731
C 0.087287 0.243752 1.626975
C 2.223951 -0.517821 -0.436660
C -2.243540 -1.137601 -0.437620
C -1.667605 0.113101 -0.084781
C 0.243928 0.115489 2.786829
H -0.026166 1.799377 -1.471002
H 2.720579 -1.393900 -0.902114
H -0.441197 2.527705 0.143653
H -3.313100 -1.352979 -0.243093
H 1.243657 2.040734 -0.205527
H -2.225168 0.778591 0.476829
H 2.535140 0.358672 -0.973970
H 0.492941 -1.723357 -0.195786
H 0.389236 -0.714013 -1.652553
H -1.668919 -2.036591 -0.657829
H 0.353951 0.012152 3.833027
H 2.538521 -0.489563 0.605982