20
H11 C7 N1 O1
C 0.331058 0.749926 1.108131
N -1.380058 0.548116 -0.676606
C 0.729511 0.050302 -0.189622
C -0.092159 -0.176674 -2.609135
O -1.662436 -2.308272 0.179850
C -0.619555 -0.197216 0.414488
C -0.099457 0.714656 -1.402645
C -1.006323 -1.534515 0.882486
C 1.116986 0.317896 2.339175
H -0.429718 -1.206963 -2.324599
H -0.676758 -1.818756 1.901378
H 0.490518 0.287384 3.293790
H -0.897095 0.178519 -3.322087
H 0.808916 -0.239028 -3.113467
H 1.401437 -0.755488 2.188352
H -0.019795 1.800275 1.121399
H -1.761520 1.431811 -0.237353
H 2.018643 0.902244 2.481196
H 1.579712 -0.524633 -0.383204
H 0.168106 1.780407 -1.651523