17
H8 C7 N2
N 0.116696 3.293835 -0.480200
C 0.007935 2.206676 -0.595776
C -1.011452 0.108985 0.425510
C -0.097068 0.729700 -0.780305
C 1.259893 -0.013207 -0.766220
C 1.248221 -0.732175 0.553654
N -3.472859 -0.412151 -0.234297
C -2.384737 -0.167042 0.034745
C -0.137091 -1.151660 0.840324
H 1.623044 -0.075556 1.352334
H -0.381661 -1.464587 1.915368
H 2.083916 0.603181 -1.009189
H 1.180902 -0.762971 -1.610967
H -0.455526 -1.964231 0.257623
H 1.984141 -1.561518 0.580334
H -0.913356 0.800395 1.250675
H -0.651005 0.562325 -1.733594