15
H7 C4 N3 O1
C -1.308078 0.123086 1.300699
C -0.170889 0.348613 0.514180
N 0.869913 1.255431 0.696766
C -0.153183 -0.652094 -0.476185
C 0.783542 -0.899546 -1.586218
N -1.942738 -0.866600 0.801597
N -1.296843 -1.379217 -0.263272
O 0.581847 2.112728 1.769611
H 0.717484 -1.918306 -2.020596
H 1.257920 1.702900 -0.081013
H 0.635138 -0.203928 -2.492033
H 1.857731 -0.786387 -1.277213
H -1.592475 -2.146009 -0.768379
H 1.384405 2.650076 1.732743
H -1.623791 0.659254 2.149307