17
H9 C6 N1 O1
C -0.020145 1.613797 -0.210234
C 0.110209 -1.276529 -0.905565
C -0.632306 -1.038447 1.638674
N 0.826744 0.774463 0.623453
O -0.543921 -0.313544 -1.738104
C -0.094834 -0.381409 0.317618
C 1.414828 1.378753 -0.586191
C -0.972368 0.464014 -0.621632
H 2.103250 2.054603 -0.404824
H 1.182452 -1.441914 -1.183673
H -0.370408 -2.238574 -0.870523
H -2.058053 0.605133 -0.546072
H 1.561346 0.625824 -1.425291
H 0.210684 -1.569497 2.149571
H -0.311443 2.656272 0.036272
H -1.412969 -1.707295 1.430016
H -0.993002 -0.205665 2.296475