18
H9 C7 N1 O1
C 0.096939 0.334755 -0.268909
C 0.479961 1.167183 0.903967
O -3.132350 -1.358986 0.158387
C -2.175948 -0.648256 0.407896
C -0.893996 -1.090099 -1.785415
C 1.369228 0.400765 1.911877
C -1.057884 -0.439444 -0.494789
C 0.375749 -0.641429 -2.278792
N 0.880558 0.217596 -1.378158
H -1.633277 -1.702837 -2.275171
H -0.438895 1.473279 1.428010
H 0.766812 -0.898649 -3.189003
H 2.281540 0.006608 1.395647
H 0.760640 -0.447557 2.248369
H 1.761672 0.653202 -1.464440
H 0.962170 2.007547 0.557534
H 1.684260 1.062464 2.748017
H -2.087163 -0.096114 1.374959