19
H10 C7 O2
C -0.544573 -0.099864 1.066239
C 0.206503 0.746130 0.039729
C -0.765148 -1.090186 -0.102844
C -1.863101 0.617175 0.517531
C -1.056256 0.278718 -0.726469
C 1.584500 0.213958 -0.495159
O 0.440442 2.169968 0.176323
C 1.586275 -1.347570 -0.347597
O 0.336253 -1.872801 -0.610265
H -1.641480 -1.742655 -0.008624
H -0.258263 2.466001 0.724290
H 1.644021 0.493678 -1.587791
H 2.414095 0.682912 0.003968
H -1.320885 0.465612 -1.761783
H -2.745200 -0.018324 0.664108
H 2.250477 -1.805879 -1.073132
H -0.269510 -0.216419 2.095562
H 1.951850 -1.595827 0.653230
H -1.949999 1.655370 0.772655