17
H8 C6 O3
O 1.617212 1.175222 -1.246240
C 0.139176 -0.856481 -1.079236
C 1.731169 -0.399332 0.719475
C 0.368713 -1.116240 0.864797
C -0.317669 -0.043541 0.032067
C 1.101102 0.224646 -0.528055
O -2.633829 0.117835 0.424408
C -1.451321 0.912930 0.207399
O 0.396281 -2.020497 -0.339193
H -0.021230 -1.590009 1.739617
H -3.451090 0.630517 0.550540
H 2.599309 -1.003798 0.661502
H 1.157814 1.503169 -1.944564
H -1.252768 1.475109 1.137807
H -1.636588 1.584011 -0.606614
H -0.142647 -0.914618 -2.112394
H 1.796362 0.321064 1.518703