17
H8 C7 O2
O 1.547719 0.796430 -0.452234
C 0.040406 -0.932306 0.363684
O -1.575827 -2.752257 -0.017409
C -0.654420 -2.197526 0.397982
C 0.596919 -0.234756 -0.930371
C 0.112290 1.084763 -0.359662
C -0.433660 0.440790 0.971564
C -0.412926 2.320743 -1.041067
C 0.635423 -2.131091 1.009205
H 0.195416 2.367503 -1.998838
H 0.812289 -0.639742 -1.797421
H -1.431407 0.551342 1.046488
H 1.480576 -2.707201 0.586974
H 0.638541 -2.229145 2.116367
H 0.088880 0.824765 1.855612
H -0.188846 3.185139 -0.489468
H -1.451384 2.252552 -1.261395