17
H9 C5 N3
N -0.052266 0.342622 2.938118
C -0.728424 -0.448707 2.009601
C 0.202655 0.177048 -1.594089
N -0.391712 -0.490977 -0.450607
C -0.218428 -0.495847 -2.896645
C 0.852519 1.077038 2.296107
C -0.115526 -0.032419 0.841681
N 0.871493 0.911450 1.040168
H -0.195433 0.327548 3.980549
H 0.214380 0.143729 -3.726477
H 0.160476 -1.503811 -2.944004
H -1.499505 -1.148895 2.232901
H 1.543594 1.776176 2.851002
H -1.329865 -0.530411 -2.937372
H 1.303305 0.164024 -1.499344
H -0.465535 -1.518989 -0.555892
H -0.151716 1.250466 -1.585704