15
H6 C5 N4
N 0.602602 -1.689060 0.665008
C 0.884458 -1.479501 -0.668618
C 0.005200 0.382454 0.332085
N 1.414876 -2.257251 -1.468718
C -1.977388 1.920318 0.089122
N 0.540740 -0.142160 -0.824270
C -0.516263 1.779253 0.321875
C 0.016826 -0.577386 1.252336
N -3.120875 2.155580 -0.089865
H -0.254541 -0.569600 2.312684
H 0.423023 0.319057 -1.775019
H 0.053289 2.485700 -0.287393
H -0.352619 2.177972 1.383216
H 1.554739 -1.942326 -2.362489
H 0.725940 -2.563039 1.120016