21
H12 C9
C 0.193024 -0.749302 -0.368865
C -1.277133 1.060274 0.038481
C 1.108356 1.154399 0.867751
C -0.992103 0.074030 -0.992841
C -0.089107 1.291194 -1.074081
C 1.094675 0.464804 -0.741737
C 0.323142 -0.195264 1.126073
C 0.389583 -2.207018 -0.702868
C -1.064023 0.315543 1.351155
H 2.013683 0.251298 -1.408244
H -0.341732 -2.838251 -0.067287
H 0.162783 -2.425259 -1.750716
H -1.734201 -0.296314 -1.731173
H -1.793626 -0.493876 1.385853
H 0.769247 1.969941 1.355287
H -1.157992 0.884450 2.209275
H 1.421471 -2.567867 -0.442186
H 2.153134 1.295510 0.961850
H 0.003346 2.053649 -1.832336
H 0.782211 -0.905692 1.821273
H -1.964747 1.863742 -0.004648