17
H10 C5 O2
C -0.007634 -0.136148 0.608508
C -1.463729 1.237340 -1.013048
C 1.483222 -0.413787 0.181699
O -2.057472 -0.983267 -0.230988
C -0.960931 -0.168073 -0.608843
C 2.374621 -0.502053 1.393608
O 3.548702 -0.046316 1.413120
H 1.851014 0.350132 -0.474264
H 2.012050 -1.097266 2.269314
H -0.438416 -0.621998 -1.500529
H -0.041561 0.804576 1.087428
H 1.533106 -1.418688 -0.341876
H -2.760226 -0.851466 -0.837745
H -2.002850 1.676596 -0.149697
H -2.129571 1.215879 -1.863921
H -0.340547 -0.932677 1.285692
H -0.599809 1.887255 -1.218452