21
H12 C8 O1
C 1.625681 -1.139146 1.398298
C -1.247858 0.610768 -1.337333
C -0.701000 -1.267188 0.433558
O -0.056243 0.027708 -1.832692
C -0.776417 2.024091 -0.888234
C 0.829498 -1.087960 0.050436
C -0.016733 1.234956 0.177081
C 0.890024 0.249872 -0.708994
C -1.248619 0.119258 0.184391
H -2.118226 0.488062 0.759832
H -2.104305 0.391312 -2.004894
H -1.176632 -2.011556 -0.277408
H -1.541202 2.674341 -0.396206
H 2.670386 -0.903337 1.194619
H -0.254727 2.547101 -1.663575
H 0.361784 1.573358 1.059965
H 1.226992 -0.403170 2.087126
H 1.188071 -1.943879 -0.592161
H 1.535892 -2.114628 1.861087
H 1.771521 0.578373 -0.982329
H -0.857906 -1.648331 1.477434