17
H9 C6 N1 O1
C 1.145723 1.283231 1.209619
C -1.365506 0.198406 -0.406497
C -2.204447 -0.923341 -0.982318
C 0.988095 1.088113 -0.241260
C 1.831787 0.058505 0.609860
O -1.886337 1.267361 -0.143755
N 0.004834 0.033415 -0.544037
C 0.768846 -0.993706 0.296882
H 2.906765 -0.074012 0.508250
H 1.267789 1.750093 -1.029772
H 0.327691 1.174817 1.906932
H -3.212113 -0.799415 -0.686623
H 1.139728 -1.757577 -0.423027
H -2.059834 -1.007884 -2.065268
H -1.787338 -1.923959 -0.566611
H 0.283982 -1.443489 1.108191
H 1.850359 2.069490 1.449426