23
H14 C9
C -0.163348 0.294805 0.119090
C -1.163022 -0.291028 -0.324945
C 3.290015 2.030463 0.573357
C -4.425579 -2.296692 -1.555406
C -2.274870 -0.929295 -0.721592
C 0.973373 0.903707 0.812589
C 1.694820 -0.424245 1.561547
C 2.164423 1.320401 -0.202958
C -3.204575 -1.533031 -1.112669
H -4.505339 -3.229353 -0.783048
H -5.378895 -1.832290 -1.028484
H 0.809485 1.512184 1.521617
H 2.566087 0.414976 -0.701651
H -4.807374 -1.676465 -2.467027
H 4.119648 2.323820 -0.141284
H 2.018314 -1.192601 0.878526
H -3.968164 -3.140338 -2.350471
H 0.507459 2.348441 0.139660
H 2.869009 2.990837 1.005102
H 3.674173 1.420392 1.370925
H 0.887106 -0.895225 2.223724
H 1.841137 1.958769 -0.983603
H 2.476094 -0.078227 2.167000