18
H9 C6 N1 O2
O 5.027230 0.042313 -1.314996
C 0.438277 1.094779 -0.355785
N -0.459032 -1.134331 0.367552
C -2.798755 -0.604168 0.852486
C -1.852146 0.432692 0.393186
O -0.618451 0.041627 -0.378742
C 2.759167 0.067752 -0.684320
C 1.714958 0.474191 -0.497113
C 4.004579 -0.491939 -0.948792
H 4.075587 -1.583817 -0.675850
H 0.459016 -1.303986 0.325838
H 0.432545 1.664369 0.521033
H 0.137632 1.751498 -1.194578
H -3.042992 -1.252071 -0.019804
H -3.789295 -0.138139 1.124804
H -2.381278 1.070430 -0.378290
H -1.600482 1.060153 1.229096
H -2.506541 -1.191366 1.634256