19
H10 C7 O2
C 0.572928 0.244756 0.364121
C 1.321903 1.385197 1.152344
C 1.001366 -1.661351 -0.526646
O -0.209579 -2.044939 0.118472
C 0.686430 -1.223814 0.801134
O -2.523944 0.830216 0.387436
C -0.431541 0.454224 -0.690149
C 0.862414 -0.268246 -1.144881
C -1.831496 -0.010255 -0.601681
H 1.018597 -1.623400 1.775080
H -0.368926 1.497024 -1.073417
H 1.537871 0.152377 -1.874089
H -2.011334 -1.045717 -0.450028
H 1.483022 2.238148 0.472258
H 1.668106 -2.426430 -0.873637
H 2.282353 1.020690 1.514802
H 0.719880 1.655287 1.945567
H -2.327838 0.218495 -1.696485
H -3.450238 0.607690 0.399778