19
H10 C6 N2 O1
C 0.871232 -1.766387 -0.629269
C -0.548388 0.946991 -2.521615
C -0.741174 1.180380 0.848629
C 0.607491 -1.458855 1.847378
O 0.299617 1.618238 1.754230
C -0.110689 0.138120 -0.037829
N 0.606004 -1.166548 -1.735125
N 0.461176 -1.050088 0.450606
C -0.090431 0.007123 -1.440575
H 0.310315 1.298722 -3.134081
H 1.421322 -2.184105 1.916625
H -1.044794 1.798764 -2.045743
H 0.857993 -0.526393 2.380644
H -1.039009 1.974525 0.153866
H -1.584434 0.836784 1.383745
H -0.103712 2.416328 2.227222
H -0.295602 -1.810286 2.220315
H 1.369021 -2.695606 -0.472498
H -1.245920 0.442257 -3.166523