17
H8 C7 N2
C 0.523865 0.920460 -0.612457
C 1.032081 -0.379553 -0.019125
C 0.855549 -0.296165 1.488642
C 0.183508 -1.339311 -0.709372
N -0.518257 -0.004068 1.819519
C -0.841640 -0.743048 -1.329435
C -0.660577 0.708739 -1.358234
N -0.655892 1.478754 -0.052492
C -1.158452 0.744623 1.074759
H 1.098282 -1.305110 1.937938
H -2.199264 1.008048 1.346686
H -1.112299 1.350139 -2.172527
H 1.558999 0.395656 1.954086
H 1.252556 1.732709 -0.910777
H -1.724191 -1.285286 -1.716797
H 2.106218 -0.564031 -0.243490
H 0.259506 -2.422530 -0.496934