21
H12 C6 O3
C 0.241836 0.528810 0.207294
C 2.214870 1.843645 0.490481
O 1.625605 0.554844 0.542643
C -1.567834 -1.037639 -0.405046
O -0.479557 1.192639 1.218508
C -0.155901 -0.959559 0.085099
C 0.784973 -1.627211 -0.898377
C -2.655577 -0.202341 -0.153769
O -2.046236 -0.189734 -1.439883
H -2.534464 0.737843 0.439137
H -0.066159 0.901347 2.122054
H 3.221551 1.815623 0.782541
H 1.866600 -1.583661 -0.600965
H 0.658819 -1.200836 -1.872067
H 2.117544 2.367102 -0.512733
H 0.043425 -1.392036 1.034366
H 0.543100 -2.698393 -0.953994
H 0.062005 1.056047 -0.700589
H -1.874912 -2.122300 -0.571611
H 1.686373 2.557727 1.266632
H -3.686025 -0.541895 -0.079720