21
H12 C7 O2
C -0.107534 -1.773078 -3.483686
C -1.291211 0.709638 0.960936
C 0.165031 0.955376 0.593859
O 0.666314 -1.343500 1.230797
C 0.917170 -0.338602 0.254603
C 0.963196 1.754667 1.635238
C 0.269312 -1.312616 -2.127433
C 0.609479 -0.918111 -1.088098
O -1.271599 0.278219 2.306911
H -0.018736 -1.138107 1.868243
H -0.501607 -0.932537 -4.066895
H -2.208958 0.023330 2.510494
H -1.722225 -0.110735 0.301455
H 0.761619 -2.185232 -4.003657
H 0.217580 1.657103 -0.376821
H 1.908489 2.040153 1.325217
H -1.853563 1.642763 0.850995
H 1.028922 1.137025 2.560626
H 0.389043 2.606855 1.923482
H -0.905109 -2.572294 -3.428377
H 1.984409 -0.180298 0.252077