15
H6 C5 N2 O2
C 1.313896 0.891499 0.469984
C -0.758868 0.243713 -0.399269
N 0.228906 -0.753360 -2.412512
O -0.507685 -0.149350 1.694370
C -0.073776 0.923482 0.794168
O 1.524604 -0.028644 -0.623634
C -1.184312 -0.718593 0.633734
C 0.352277 -0.214935 -1.320317
N -1.866661 -1.744857 0.607889
H -0.501133 1.877899 1.154304
H 1.976114 0.463625 1.348823
H -1.588226 0.735932 -0.947561
H -1.913752 -2.260043 1.568586
H 1.802246 1.820867 0.165318
H 1.196408 -1.087262 -2.733883