12
H5 C4 N1 O2
O -0.089657 -1.507738 -1.038894
C 0.483556 0.063637 0.420350
C -1.019790 -0.477769 -1.078473
O -2.014753 -0.621300 -1.994041
C 1.283900 0.684867 1.433164
C -0.741802 0.481669 -0.243736
N 0.835759 -1.130789 -0.088490
H 1.629580 1.633631 1.061491
H 0.681871 0.922073 2.344587
H 2.075886 0.074315 1.663737
H -1.221657 1.399965 -0.063315
H -1.902904 -1.522557 -2.416396