16
H10 C6
C -0.083234 0.317471 -0.346545
C 0.022313 -0.997228 1.418857
C -0.989229 0.048254 0.858139
C 0.926277 -0.713496 0.216446
C 0.152651 1.673434 -0.935023
C 0.161972 -0.992872 -1.071719
H 1.001950 1.654017 -1.630550
H 0.730433 -0.920319 -1.982519
H -0.728476 2.015466 -1.512569
H -1.110201 0.930581 1.506858
H 2.008419 -0.667383 0.223678
H -0.594658 -1.768066 -1.087427
H -2.009133 -0.319630 0.619337
H 0.464466 -0.655775 2.350403
H -0.305540 -2.034691 1.538305
H 0.352002 2.430238 -0.165660