16
H10 C6
C 0.771334 1.650990 0.395037
C 0.377145 -1.428694 0.359143
C -1.037346 -0.074574 -0.611558
C 0.361281 -0.632015 -0.949467
C -1.033800 -0.828820 0.723391
C 0.179384 0.835995 -0.738812
H 0.704941 -1.054103 -1.903926
H 0.740254 1.132362 1.346144
H 0.338957 -2.510343 0.230485
H 1.819040 1.883269 0.190257
H 1.195398 -1.183301 1.054721
H -1.885289 0.048347 -1.283871
H -1.817042 -1.591807 0.747209
H -1.134011 -0.208382 1.622862
H 0.192173 1.367000 -1.680456
H 0.227572 2.594105 0.498838