16
H7 C5 N3 O1
C 1.540540 -1.309809 0.327705
C 0.189704 -1.217520 -0.158694
C -1.390930 1.524047 -0.674894
N 2.067309 -0.227777 0.926282
C 1.076789 0.773164 0.882467
C -1.857748 0.208120 -0.438395
O 2.231827 -2.409918 0.301646
N -0.224402 1.316567 0.365081
N -0.184828 0.102896 0.166187
H 1.456949 1.569810 1.514703
H 3.085869 -2.210936 0.685156
H -2.063021 2.371522 -0.426216
H -1.915453 -0.441403 -1.351984
H -2.689330 0.122809 0.211019
H -0.971441 1.749723 -1.726632
H -0.351835 -1.921292 -0.603424