19
H10 C7 O2
O -1.008295 0.964975 1.624073
C -0.080040 0.644277 -0.141482
C 0.427786 -0.567638 0.712881
C -1.328168 -0.174206 0.046717
C 1.330488 -1.193850 -0.433099
C -0.860927 -1.337825 0.746253
C 0.577984 0.754096 -1.495522
C -0.526442 1.794663 0.732000
O 0.939155 -0.600450 -1.671569
H 1.163424 -2.344274 -0.513165
H -1.219594 -1.540686 1.743319
H -1.293140 2.463023 0.278460
H 1.033506 -0.348904 1.600045
H -0.933924 -2.211846 0.077915
H 1.442347 1.400678 -1.414080
H -0.102528 1.145070 -2.261420
H 0.222175 2.399187 1.287464
H 2.398430 -1.064138 -0.290520
H -2.182236 -0.182175 -0.628313