16
H7 C6 N3
C 0.446506 -0.374390 0.947605
C -0.662127 0.119276 -0.545890
C -0.850879 0.178939 1.037831
C 0.209866 -2.186667 -0.900426
C -0.120400 2.275470 -0.900872
N -0.498470 1.116544 -1.507190
C 0.401704 1.189644 1.093112
N 0.380094 2.364935 0.336761
N -0.512452 -1.058187 -0.288627
H 0.789240 1.378339 2.105537
H 1.066142 -1.085787 1.443169
H -0.471824 -2.978140 -0.763238
H -0.087744 3.207079 -1.491300
H -1.545643 -0.001561 1.923210
H 1.124136 -2.303873 -0.500104
H 0.331871 -1.841646 -1.989563