14
H5 C5 N1 O3
O -3.079984 0.044526 -0.335205
C -1.174584 -1.316729 -0.495582
O 2.200451 -0.188130 0.164289
C 0.101296 -1.386903 -0.371560
C -1.954672 -0.103666 -0.202474
C 0.153380 0.871746 0.323790
O -1.137365 0.979468 0.157144
C 0.871728 -0.192360 -0.008077
N 0.689830 2.028032 0.715851
H 0.254939 2.909105 0.590233
H 1.750167 2.032465 0.690266
H 2.534687 -1.098648 0.093289
H 0.612905 -2.359305 -0.524671
H -1.822809 -2.219620 -0.797275