18
H9 C6 N1 O2
C 1.535832 0.233406 -0.302683
C 0.550100 -0.297045 1.739184
N 1.425862 0.467169 0.913159
C -0.753028 -0.702425 1.469952
O -0.126747 1.795092 -1.075772
C -1.537566 -0.512478 0.212284
O 2.397227 1.429023 0.541562
C -0.719428 -0.533989 -1.025933
C 0.293344 0.556140 -1.312879
H -1.389778 -0.478577 -1.920452
H 0.706505 0.532623 -2.302830
H 1.042882 -0.549064 2.669696
H 2.132115 -0.556367 -0.797194
H -1.232339 -1.261793 2.240550
H -2.055610 0.499899 0.308218
H -0.223893 -1.542591 -1.233749
H 0.315693 2.110283 -0.270560
H -2.361181 -1.189347 0.147453