15
H7 C5 N3
C 0.692148 1.112079 1.379813
C -0.269473 0.514369 0.394807
N -2.032807 -0.601406 -1.288274
C 0.092585 -0.492038 -0.532169
N -1.498295 0.845490 0.507628
C 1.466381 -1.138399 -0.822437
C -2.373340 0.283777 -0.350678
N -0.766484 -1.050123 -1.371354
H 2.182320 -0.722868 -0.098179
H -3.377394 0.617325 -0.345487
H 1.665943 0.670508 1.314094
H 1.811587 -0.904118 -1.798368
H 0.696326 2.189917 1.265910
H 0.272893 0.896575 2.417358
H 1.437601 -2.221101 -0.672661