18
H9 C7 N1 O1
O 3.190850 0.571669 0.783310
C -1.427556 0.943400 -0.444907
N 0.574938 -0.336242 1.441317
C -0.254708 1.412177 -0.229928
C -0.700389 -1.495667 -0.508730
C 2.275541 1.156635 0.243969
C -1.832685 -0.477246 -0.280314
C 0.666153 -0.993195 0.080727
C 0.822943 0.541120 0.310479
H -0.000057 2.446549 -0.428310
H 1.508815 -1.524910 -0.113967
H 2.323846 2.080940 -0.303744
H 1.389369 -0.497437 1.933755
H -0.491898 -1.628229 -1.545624
H -2.248229 1.638369 -0.755409
H -0.914134 -2.460018 -0.036868
H -2.190412 -0.605512 0.760765
H -2.692377 -0.772409 -0.906501