21
H12 C8 O1
C -0.326428 -0.470541 -0.022229
O -2.062150 -0.524787 -1.966390
C -1.127699 0.904545 0.142177
C 1.171481 -0.544004 1.543236
C -0.223880 1.921709 -0.037521
C 1.089814 -0.027767 0.062522
C -0.903527 -1.101152 -1.287915
C -0.252529 -1.259859 1.272879
C 1.210455 1.421506 -0.291519
H 1.996873 -1.192096 1.806602
H 1.946982 1.974514 0.384703
H -0.136752 -2.343123 1.035665
H -0.058094 -1.036815 -2.103175
H 1.592615 1.659989 -1.280571
H -0.497000 2.957187 -0.034479
H 1.055542 0.272443 2.254900
H -1.078016 -1.128396 2.019233
H 1.840883 -0.693949 -0.606946
H -1.983633 0.395434 -2.104879
H -2.059453 0.985312 0.364467
H -1.195488 -2.170143 -1.150783