16
H7 C6 N1 O2
C 1.380574 1.209219 -1.434295
O 0.253832 -1.003478 0.044320
C -0.318476 0.269043 0.099382
O 1.855051 2.126259 -1.999879
C 1.898595 -0.191788 -1.519371
N -1.362962 0.262580 0.813011
C 0.240335 1.304067 -0.534254
C -1.814984 -0.771553 1.751617
C 1.314060 -1.052243 -0.825986
H -1.092617 -0.837978 2.542671
H -1.754379 1.180929 1.113505
H -1.898846 -1.714928 1.180780
H -2.799251 -0.545165 2.167567
H 2.728414 -0.298571 -2.197910
H -0.310408 2.244368 -0.421656
H 1.681049 -2.180745 -0.779503