17
H8 C7 O2
O -0.295085 -1.289716 0.852181
C 1.090858 -1.292013 0.538617
C -0.437166 -1.898763 -2.801718
C -0.404338 -0.954968 -2.054641
C 0.198907 -0.113815 0.222418
O 0.334900 1.005486 2.434429
C -0.641932 1.798657 1.745651
C 0.393504 1.093094 0.983890
C -0.385964 0.134606 -1.196102
H -1.642489 1.329073 1.684082
H 1.309065 -1.955624 -0.225585
H -1.495483 0.432727 -0.910106
H -0.423246 -2.644576 -3.550092
H 1.234393 1.797642 0.602625
H 0.081947 1.008028 -1.624186
H 1.758233 -1.244759 1.360596
H -0.676105 2.794919 1.937924