12
H6 C4 N2
N -0.175517 -0.135548 0.377912
C -0.185297 -0.419673 -0.993162
C 0.954230 1.395787 -0.477440
C 0.613175 0.486861 -1.613797
C -0.774049 -0.880692 1.444231
N 0.627364 0.961608 0.658962
H 0.774831 0.664697 -2.668766
H -1.423509 -1.636844 1.103257
H 1.647420 2.295170 -0.607793
H -1.342283 -0.170357 2.054037
H 0.029356 -1.325743 2.060697
H -0.745710 -1.235264 -1.338126