17
H8 C6 N2 O1
C -1.244143 1.546257 1.941352
C -0.757356 0.723442 0.844872
C 0.059351 1.367557 -0.178421
N 1.049441 -0.552685 -0.179492
C 0.379436 0.312735 -1.261149
C 0.492266 -1.890024 -0.065475
N -1.725664 2.128582 2.832031
C 0.684238 0.457818 0.800006
O -0.703190 -0.099622 -1.902420
H -0.508661 -0.819438 -2.552439
H 0.177744 2.454516 -0.218606
H -0.592792 -1.987537 0.014212
H 1.363586 0.594159 1.631516
H -1.595792 -0.077325 0.490782
H 0.821323 -2.487935 -0.999718
H 1.163183 0.714381 -1.945703
H 0.937051 -2.384881 0.748683