17
H8 C7 O2
O -0.403276 0.038873 1.981562
C 1.873620 -2.174448 0.046982
C -1.143678 -0.358715 0.715699
C -0.880527 1.055337 1.033418
O -0.951737 -1.297411 -1.528364
C 0.010401 0.826893 -0.917321
C -0.269291 -0.653405 -0.517513
C 0.917592 -1.492005 -0.225391
C 0.473659 1.441884 0.608929
H 0.795581 1.098364 -1.557927
H -2.061337 -0.880450 0.794397
H 2.704529 -2.771688 0.246427
H -1.682268 1.721878 1.366224
H 1.412893 1.049308 0.877144
H 0.468754 2.561895 0.830210
H -0.919543 1.243927 -1.434137
H -0.345343 -1.410245 -2.320341