19
H10 C8 O1
C 0.817404 1.559324 0.497767
C 3.489199 1.230854 0.619089
C -2.093873 0.187652 -0.621828
C 0.495282 -0.962344 -0.132657
C 0.029296 0.163636 0.695185
C 2.321731 1.372161 0.514578
O -1.391320 0.333094 0.564265
C -1.821523 -1.054717 -0.136824
C -0.558312 -1.764825 -0.759368
H -2.534801 -1.669920 0.442491
H -0.489153 -2.782874 -0.385318
H 4.492621 1.119822 0.680721
H -1.591139 0.544733 -1.570581
H -3.110966 0.514468 -0.619331
H -0.664717 -1.742131 -1.834300
H 1.545087 -1.100893 -0.269901
H 0.556654 1.846766 -0.549910
H 0.369316 2.283478 1.116560
H 0.139229 -0.078266 1.749365