15
H6 C5 N4
N -0.812449 1.540434 1.920497
C -0.200612 0.595449 1.292469
N -0.858492 2.531409 0.992508
C -0.118960 -2.001797 -0.744812
N 0.931318 0.252776 -0.913235
C 0.179938 0.989878 0.037537
C 1.136019 -1.130240 -0.833591
C -1.055050 -2.668409 -0.548634
N -0.244953 2.268431 -0.124582
H -1.302555 3.342122 1.150993
H 1.800701 -1.328785 0.022058
H -1.955056 -3.212372 -0.431055
H 1.612593 -1.482993 -1.774839
H 0.890150 0.703937 -1.870697
H -0.002581 -0.399813 1.825397