18
H9 C7 N1 O1
O 0.527058 1.850431 0.226016
C 0.351661 0.833769 -0.738057
C 0.651105 0.837217 1.489760
N -0.550768 -1.099300 0.407878
C -1.132649 0.610352 -1.004253
C 1.809714 -0.577439 0.653446
C -1.516910 -0.281197 0.087177
C -1.098428 -0.964104 -1.259646
C 0.595128 -0.158348 0.310823
H -1.822796 1.385881 -1.360202
H 1.418759 1.338854 2.003204
H 0.925105 0.964826 -1.631230
H -1.972234 -1.529455 -1.529612
H 1.936488 -1.618174 0.884883
H -0.270290 -1.456210 -1.827276
H -0.087136 0.385064 2.294657
H 2.753507 -0.053844 0.490987
H -2.517305 -0.468342 0.501438