17
H8 C6 N2 O1
C 0.561614 0.477298 0.472278
C 0.425988 -1.462995 -0.605432
C 1.015775 -0.049923 -0.798306
O 1.904347 -0.052952 0.468983
C 0.075705 -1.011568 0.756837
C -0.637777 0.361644 0.618302
N 1.308999 0.375228 -1.983209
C -1.791162 0.757055 1.441693
N -1.639161 1.227305 0.121010
H -1.532575 1.420672 2.302249
H -1.380132 2.176863 0.045061
H 2.287951 -0.039083 -2.147640
H -2.664208 0.095282 1.593198
H 1.293684 1.454522 -2.091127
H -0.493018 -1.755721 -1.204900
H 0.066397 -1.657680 1.670822
H 1.197582 -2.315953 -0.659824