21
H12 C8 O1
O -1.571644 -1.283289 -1.571772
C -2.264039 -0.037851 0.497620
C -1.198613 0.734458 -0.117580
C 2.655753 0.840620 0.746657
C -2.070649 -0.116606 -1.004879
C 0.182408 0.264147 0.042470
C 0.650862 -0.809931 -0.487617
C 1.192126 1.173615 0.876576
C -0.401499 -1.841118 -1.044650
H 3.034270 0.965171 -0.354426
H 1.029581 2.182812 0.546142
H 2.892156 -0.175570 1.003908
H 0.025223 -2.418398 -1.857405
H -1.968781 -0.885298 1.054584
H -2.805429 0.320146 -1.649880
H 3.258927 1.551199 1.378429
H -1.279223 1.765535 -0.174115
H 1.627808 -1.169904 -0.531083
H 0.832832 1.060268 1.928864
H -0.724628 -2.574685 -0.201986
H -3.097443 0.454659 0.920159