14
H5 C5 N3 O1
C -0.518652 -0.936938 0.057409
C -0.737693 -2.302347 0.527411
O -0.059599 -2.723268 1.378836
C 0.063736 1.589944 -0.851317
C 0.887853 1.072050 0.225986
C -1.019323 0.809096 -1.269970
N 0.521543 -0.251400 0.589834
N 1.886558 1.733814 0.641281
N -1.282518 -0.442437 -0.843762
H 0.231873 2.567069 -1.210692
H -1.619413 -2.803780 0.110926
H 1.041826 -0.743539 1.341080
H -1.697535 1.170516 -2.082731
H 2.301345 1.261210 1.385693