20
H11 C7 N1 O1
C 1.947976 1.214439 0.115289
C -1.432710 -0.601376 2.310503
C 0.081702 -0.031495 -1.181002
C 0.863313 -1.131157 -1.990890
C 0.911787 1.236416 -1.054529
O -0.933431 1.520947 1.145938
C -0.584033 -0.512228 0.001803
N 2.705874 1.098189 0.877252
C -1.006503 0.061481 1.141569
H -0.780326 -1.397103 2.619551
H -1.616584 0.065627 3.184392
H 1.258257 -0.766425 -2.934211
H -0.823763 -1.587449 -0.084945
H 1.769151 -1.395745 -1.349568
H -0.749266 0.149307 -1.909433
H 0.266807 2.045274 -0.845155
H -1.183317 1.753341 1.961045
H 1.480580 1.392161 -1.985780
H 0.244678 -2.027162 -2.128715
H -2.420175 -1.087031 2.106876