21
H12 C8 O1
C 0.618503 0.267335 1.012736
C 1.415946 -1.128724 -1.041501
C -0.552671 1.301964 1.157515
C 0.582049 -0.022527 -0.582519
C 1.844871 0.222564 -1.369392
C -1.371163 -0.887938 1.209828
C -1.529372 0.410091 0.376536
O 0.057169 -0.964112 1.536373
C -0.817438 0.217529 -0.984764
H 2.013281 -1.758146 -0.395806
H 1.575465 0.457832 1.471569
H 0.967680 -1.759200 -1.853623
H 2.688433 0.573545 -0.872232
H -1.957100 -0.818215 2.119762
H -0.745899 1.470538 2.142494
H -0.872754 1.123325 -1.569085
H 1.723735 0.596912 -2.374187
H -0.338794 2.293200 0.610066
H -1.585114 -1.788279 0.646601
H -1.246248 -0.590854 -1.567783
H -2.470543 0.783141 0.327432