10
H1 C2 N5 O2
O 0.012941 -0.813917 1.155788
C 0.146226 0.986046 -0.742014
N -0.996655 -1.683169 0.552678
N 1.361213 0.989392 1.302420
C 0.509502 0.308071 0.634810
O 0.480232 2.080289 -0.921981
N -1.370222 -1.772833 -0.699529
N -1.147373 -0.884836 -1.772376
N -0.575431 0.233763 -1.705006
H 1.579580 0.557195 2.195225