20
H11 C7 N1 O1
C -0.858046 0.684019 0.349765
C -1.750894 -0.527169 0.658557
C 0.576553 -0.005852 0.234422
C 1.358716 0.929910 -0.615734
C -0.834834 0.909394 -1.305681
N 0.419437 0.221603 -1.532955
C -0.099184 -1.087579 -0.700412
C 1.442448 -0.725124 1.296508
O -1.472498 -1.411951 -0.421590
H -1.043756 1.568951 0.949519
H 0.878164 -1.431756 1.847278
H 1.206868 2.010128 -0.558213
H -2.810483 -0.303134 0.588479
H -0.624258 1.983719 -1.616668
H 1.884622 0.044440 1.974626
H 0.346731 -1.995359 -1.002606
H 2.231912 -1.225570 0.794250
H 2.390359 0.701104 -0.768612
H -1.611148 -0.910406 1.684297
H -1.630667 0.570626 -1.855276