16
H7 C6 N3
C -0.674482 -0.692842 -0.754193
C -1.132728 -1.535076 0.265980
N 0.136637 -0.025680 1.187041
C 1.405060 2.296561 -1.266541
C -0.611019 -1.090635 1.377167
C 0.803056 1.366491 -0.758485
N -1.002042 -0.691079 -2.111983
C 0.142832 0.281721 -0.213773
N 0.989469 0.656880 2.080199
H -0.771620 -1.454894 2.388271
H -1.214046 -1.667388 -2.437689
H -1.729024 -2.392578 0.088852
H 1.449912 1.447959 1.666054
H -0.356692 -0.158603 -2.748574
H 0.706334 0.581372 3.009855
H 1.858332 3.077795 -1.772179