19
H10 C6 O3
C -0.424864 -0.244729 -1.839520
C 0.865738 0.547578 -1.709662
O 0.887744 1.145237 -0.431980
O 0.140739 -0.602267 3.907226
C -0.094394 -0.558357 2.779798
C 0.754901 0.130048 1.795779
C -0.593586 -0.784699 -0.345359
C -0.029085 0.387562 0.391191
O -1.578099 0.635080 -2.233016
H 1.538765 -0.612895 1.465772
H -1.604528 -0.974233 -0.142331
H -0.442139 -1.078258 -2.494385
H 0.966398 1.340919 -2.412606
H 1.190828 1.034749 2.108271
H -1.338333 1.458994 -1.888229
H -0.000444 -1.684095 -0.183034
H -0.933365 1.111595 0.711393
H 1.722661 -0.161893 -1.881939
H -1.028946 -1.090337 2.402658