15
H6 C7 O2
O -0.817185 -0.031907 -2.454858
C 1.322827 -0.732413 0.041764
C 0.448300 -1.354729 0.929220
C 0.639685 0.554423 -0.468904
C -0.602755 0.040849 -1.283149
C -0.681947 -0.456287 1.222988
O 1.542370 1.468978 -0.936928
C -0.390900 0.922173 0.639769
C -1.464213 0.112240 -0.014865
H -1.277289 -0.616071 2.127830
H -2.518131 0.168576 -0.073873
H 1.388999 1.498685 -1.874555
H -0.472011 1.824914 1.154955
H 0.687903 -2.294179 1.369694
H 2.194343 -1.105249 -0.379107