17
H8 C7 O2
C -3.619495 -0.953811 -1.414668
C 0.230566 0.546217 -0.963775
O 1.503841 -1.148662 -0.012290
C -1.071389 0.052403 -1.086237
O 0.850008 1.634910 1.750003
C 1.509228 0.711536 1.341291
C 1.127936 -0.125805 0.135910
C 2.853240 0.299104 1.982223
C -2.216600 -0.438167 -1.282028
H 0.210209 1.589318 -0.671484
H -3.989939 -0.982922 -0.408975
H 2.932371 0.749934 2.981059
H -3.596730 -1.924216 -1.808932
H 3.747976 0.590197 1.385311
H -4.183570 -0.302866 -2.070920
H 0.778292 0.483204 -1.880686
H 2.934075 -0.780414 2.024190