19
H10 C7 O2
O 0.891989 -1.207923 -1.010500
C 0.792601 1.229533 0.040588
C -0.266222 1.742797 -0.937653
C -0.523024 0.476526 -0.022577
O -1.389668 -2.397190 -2.063068
C 1.488300 1.417442 1.438581
C -1.543359 -1.744769 -1.078420
C -0.327613 -0.918388 -0.562798
C -0.319824 -2.071950 0.453101
H -0.810646 2.649080 -0.683023
H 2.386660 0.853525 1.433010
H -0.787110 -1.975352 1.288026
H 0.316016 -2.911909 0.271663
H -1.237216 0.563027 0.780882
H -2.496017 -1.474007 -0.644729
H -0.184679 1.522081 -1.951309
H 0.761008 0.880978 2.179778
H 1.661276 2.288582 1.719867
H 1.587533 1.077917 -0.651446