23
H14 C7 N2
C 1.627889 -1.063587 0.455723
C -1.324787 0.616479 0.856498
C -2.195618 -0.781969 -1.844203
N 4.140821 1.534729 1.218234
C 1.513671 1.300053 1.064780
C -0.479000 0.270702 -0.253697
C -0.851223 -0.852166 -1.107503
N 1.041355 0.222592 0.132024
C 2.931031 1.324621 1.135472
H 1.103030 2.203630 0.687394
H -0.950524 -1.784127 -0.484192
H -2.298316 -1.592408 -2.607846
H 2.669344 -0.890134 0.465749
H 1.373102 -1.801553 -0.343150
H -2.395319 0.645404 0.503710
H 1.160798 -1.418540 1.473090
H -1.081673 1.600981 1.347173
H -2.226876 0.205902 -2.441102
H 1.124123 1.151439 2.083966
H -0.078014 -1.111171 -1.824314
H -1.292623 -0.212122 1.647065
H -0.429965 1.174145 -0.945600
H -3.081268 -0.742925 -1.219224