17
H8 C7 N2
C -0.807126 0.735816 0.695730
C -0.778983 1.732397 -0.362917
C 0.818232 -0.203762 -1.130007
C -0.256074 -1.138636 -0.698441
N 1.271117 -1.129460 -0.168850
C 0.707567 -1.275791 1.203877
C 0.527672 1.234017 -1.023898
N 0.231722 1.622259 0.405764
C -0.718374 -0.824366 0.720116
H -1.594097 -1.279508 1.046032
H -0.989434 -1.585872 -1.463885
H -1.272841 2.544543 -0.715266
H -1.248256 0.998717 1.711411
H 0.790330 -2.346302 1.546541
H 1.001969 1.968390 -1.656050
H 1.106634 -0.572316 1.993413
H 1.209947 -0.480127 -2.103575