17
H8 C6 O3
O -0.820612 0.093888 2.304845
C 1.488951 -0.720809 1.625869
C -0.258097 -0.621675 -0.080867
C -0.057652 -0.311080 1.424421
C -1.573820 1.494882 -1.101933
O 0.706846 1.412358 -1.092321
C -0.349468 0.529870 -1.185805
C 1.096907 -1.328224 -0.306374
O 1.965864 -0.736107 0.325421
H 1.231383 -2.174804 -0.861105
H -1.114031 -1.275412 -0.141236
H -1.577891 1.908078 -0.020541
H 1.577980 -1.708917 2.216171
H -1.407808 2.305214 -1.823066
H -2.477902 1.027925 -1.384201
H 1.980542 0.021561 2.238801
H -0.411223 0.083198 -2.138072