22
H13 C7 N1 O1
C 1.392817 1.089995 1.811001
C 0.959753 0.465319 -0.547085
C -2.697376 -2.718273 -0.123632
N 0.745034 -0.890602 -0.133039
C 0.632869 1.434275 0.562491
C -0.420749 -1.567264 -0.108281
C -1.466110 -2.113529 -0.074949
O 1.044874 2.711168 0.080751
C 0.193781 0.761094 -1.892634
H 1.607437 -1.342370 0.243477
H 0.835863 3.386685 0.760373
H -0.933883 0.547614 -1.715453
H -2.533967 -3.870588 -0.272499
H -3.238927 -2.366328 -0.906494
H 1.270615 1.920576 2.498570
H 2.453119 0.976909 1.635880
H 2.001539 0.548745 -0.850711
H 0.457324 0.172007 -2.665454
H 0.305289 1.802149 -2.148630
H -3.261540 -2.583657 0.806736
H -0.383267 1.427047 0.740287
H 1.035478 0.208975 2.299299