20
H11 C6 N3
C 0.623054 -0.261834 0.050088
C -0.289795 0.037783 -0.874321
C -2.670178 -0.082998 -0.778716
N 0.135824 -0.397062 -2.153592
C 1.445639 -0.653058 -1.966929
C 0.005227 1.182077 2.122043
N 1.874265 -0.540880 -0.644452
C 0.477705 -0.214958 1.523103
N -1.399783 0.560866 -0.673234
H -2.573090 -1.112965 -1.243788
H 0.715430 1.919631 1.830047
H -3.132169 -0.078464 0.205288
H 0.006898 1.199416 3.141992
H -1.000935 1.442717 1.773840
H 1.927017 -0.986677 -2.893064
H -0.241595 -0.960581 1.766146
H 1.415986 -0.441992 1.975913
H 2.689183 -0.529798 -0.079095
H -3.174445 0.632402 -1.470733
H 3.165765 -0.713593 -1.610509