19
H10 C5 N4
C 0.107192 0.556961 -1.145810
C 0.224547 -0.246220 0.831334
N 0.547306 -0.587415 2.090232
C 0.553067 0.458004 3.069628
N 0.513630 0.834493 0.096359
N -0.589203 -1.150735 0.115345
C -0.607511 -0.616766 -1.192398
C 0.326656 1.516159 -2.207097
N -1.198110 -1.366219 -2.238682
H 1.362318 1.756985 -2.302347
H 0.920115 0.042053 4.039622
H 1.223298 1.233946 2.781684
H -0.937476 -2.302686 -2.341547
H -0.859219 -2.013512 0.412064
H 1.373065 -1.113785 2.121055
H -2.281280 -1.478489 -2.127949
H -0.446135 0.805005 3.202217
H -0.207594 2.492062 -2.043977
H -0.024664 1.180156 -3.159729