18
H9 C6 N1 O2
C 0.000714 -0.332335 0.315714
C 2.407655 -0.700468 -1.136009
N -0.862328 -1.390475 -0.232028
C -0.439294 1.132762 -0.008408
O 0.855256 0.235438 2.443277
C -0.771999 1.508180 -1.350269
C 0.316972 -0.631774 1.743499
C 1.351762 -0.584845 -0.540742
O -0.148927 -1.762156 2.116528
H 3.408665 -0.871099 -1.778374
H -0.023588 -1.770379 3.168945
H 0.400565 1.793783 0.440907
H 0.135648 1.388416 -2.029380
H -1.291045 1.224715 0.632114
H -1.535397 -1.529146 0.418733
H -1.581523 0.915290 -1.719021
H -1.061290 2.570120 -1.345382
H -1.161820 -1.196017 -1.140120