19
H10 C7 O2
C -1.488006 -0.121965 0.244112
O -0.092467 -1.790972 1.314778
C -1.592866 0.495201 -1.047908
C 2.014523 0.843523 0.793104
C 0.974484 0.967442 -0.113367
C -0.896605 -1.580644 0.256692
C 2.139490 0.259817 -0.758086
O 1.678556 2.190745 0.394314
C -0.564483 0.987335 -0.071772
H 2.407001 0.584280 1.566241
H -1.747857 -2.282008 0.179177
H 2.335450 -0.726847 -0.656102
H -1.207588 -0.027118 -1.920240
H -2.374939 1.098494 -1.240123
H -0.562815 -2.070355 2.136106
H -0.282650 -1.721228 -0.601564
H 2.322608 0.775902 -1.732107
H -0.825461 2.022773 0.262754
H -2.236357 0.095637 0.994007