19
H10 C6 N2 O1
C -0.729846 0.402905 0.285201
C 1.771754 -1.805350 -1.295936
N -1.139048 1.615733 0.805579
C 1.711454 1.087901 0.003572
O 0.774216 -1.218281 -0.425932
N -1.710317 -0.503528 0.488931
C -2.444394 1.431920 1.353032
C 0.519844 0.232468 -0.430575
C -2.775253 0.141836 1.228003
H -1.612433 -1.514261 0.331122
H 0.326232 0.467135 -1.518824
H 1.472922 2.084026 -0.040671
H -3.662223 -0.410802 1.449022
H 2.568116 0.813227 -0.610945
H 1.494905 -2.871088 -1.364516
H 1.926713 0.837575 1.022911
H 2.718030 -1.658172 -0.822899
H 1.700204 -1.394789 -2.248467
H -2.910910 2.261520 1.791402