19
H10 C8 O1
O -0.460990 2.230922 1.558205
C -0.492792 -1.494110 -1.254743
C -1.156174 1.536959 0.738014
C -0.296924 0.671708 0.029867
C 0.385645 -0.400070 0.931270
C 1.588235 -1.105890 0.409470
C -0.677184 0.028433 -1.254619
C 0.118287 2.215357 0.134681
C 0.206642 -1.744928 0.193476
H -0.020576 -2.701599 0.649148
H -0.269296 2.891738 -0.557479
H 0.281739 -0.394818 1.973712
H -0.995714 0.592007 -2.063317
H 1.115203 2.362678 0.296636
H 2.079267 -0.663437 -0.435580
H -1.446521 -2.001337 -1.223121
H -2.266182 1.476173 0.843464
H 0.117611 -1.893312 -2.065919
H 2.189754 -1.606514 1.096833