20
H11 C6 N1 O2
O 0.124771 -1.861936 0.384393
C 1.533650 -1.681594 -0.068417
C 0.101038 0.396106 0.591742
C -2.428677 0.615120 0.288777
C 1.990979 -0.277991 -0.528234
C -0.001292 -0.773528 1.258250
N 1.384645 0.831927 0.293987
C -0.966119 1.061062 -0.235411
O -0.839405 0.573817 -1.630053
H -2.490496 -0.479677 0.272550
H 1.450501 1.724420 0.473409
H -1.507075 1.148072 -2.154808
H 2.092020 -2.011014 0.780085
H -2.474380 1.057711 1.277982
H 1.659611 -0.123092 -1.537424
H -0.885571 2.192256 -0.172959
H -0.222164 -0.832068 2.267584
H 1.605259 -2.363090 -0.798593
H -3.171818 1.049614 -0.337473
H 3.044521 -0.246102 -0.425414