14
H6 C4 N2 O2
N -0.684239 -0.934235 -1.208584
C -0.627952 -0.386124 0.892476
N -2.461902 -1.875425 -0.017970
C 2.104158 1.868485 -0.248949
C 0.394864 0.251409 0.226893
O 1.298892 1.166951 0.781497
C -1.332203 -1.111840 -0.102909
O 0.332160 0.056197 -1.081616
H -2.512861 -2.362192 0.846665
H 2.746133 2.481881 0.432720
H -2.576099 -2.526527 -0.737978
H 2.639109 1.201846 -0.861772
H -0.793440 -0.313838 1.927147
H 1.473355 2.483407 -0.847593