21
H12 C8 O1
C 0.055833 -0.360415 -1.324876
C 0.268495 1.056486 2.331506
C -0.945300 1.717168 -0.618711
C -0.090172 0.492902 -0.265657
C 0.228798 -2.043636 -3.403867
C 0.512545 0.192038 1.045443
C 0.168488 -1.172296 -2.257981
O 1.309104 -0.793634 1.180613
C 0.081527 0.223685 3.570596
H -0.406023 2.264203 -1.393448
H 1.075973 1.705064 2.371752
H 0.688405 -3.006879 -2.847333
H -0.117116 0.939724 4.377994
H -1.881991 1.470934 -0.995519
H -1.040554 2.403433 0.263193
H -0.782969 -2.524007 -3.474471
H 0.908662 -0.372111 3.861851
H -0.776477 -0.451752 3.502932
H 1.361040 -1.988884 -3.722951
H -0.641180 1.626262 2.128652
H 0.022917 -1.378287 -4.329689