20
H11 C6 N1 O2
C -1.588972 0.259623 1.589002
C -0.340530 -0.159081 0.712441
O -2.293759 -0.669014 -0.592503
C 0.765755 -0.923663 1.556089
C 0.160154 0.682552 -0.417205
N 3.109517 0.438963 -2.468923
C 1.897611 0.728147 -2.103865
C -1.657248 -0.852390 0.587948
O 1.500228 0.311269 -0.851255
H 1.130570 1.163691 -2.697300
H 1.432983 -0.164377 1.932007
H -1.950771 1.291837 1.265990
H -1.741638 -1.899970 1.018675
H 1.269427 -1.623937 0.867849
H -3.210443 -0.406084 -0.406534
H -1.588922 0.072095 2.549928
H 0.186466 1.748305 -0.136420
H -0.582581 0.610015 -1.273699
H 0.312759 -1.463738 2.295565
H 3.189389 0.855754 -3.427798