15
H8 C5 N2
C -0.752487 -0.329693 1.057982
C -0.469722 -1.782076 0.804744
N -0.237831 -2.907138 0.620272
C 1.018308 0.325827 -1.441423
C 0.553402 0.495597 1.003304
N 0.213609 0.968470 -0.406721
C -1.127796 0.512048 -0.171703
H 2.011667 0.522709 -1.390541
H 0.644049 1.328809 1.729587
H 0.542951 0.619510 -2.439053
H 0.901126 -0.812365 -1.365832
H -1.562627 -0.016246 -1.067498
H 1.458922 -0.065687 1.101876
H -1.808807 1.323956 0.005432
H -1.384764 -0.183738 1.959521