14
H6 C5 N2 O1
N -1.381956 -0.808917 0.230220
C -0.562627 0.220212 0.781410
O -1.354059 -2.161205 -1.698271
C 0.344055 -0.572522 -0.996908
C 0.573809 0.307277 -0.120910
N -0.892559 0.932573 1.830655
C -0.824419 -1.223984 -0.866881
C 1.849657 1.215747 0.018565
H 2.362374 1.001588 0.905128
H -1.681956 -2.834653 -1.754881
H 2.465236 0.999308 -0.859203
H -2.309658 -0.976131 0.536615
H -0.125440 1.595337 1.927453
H 1.537562 2.305358 0.067022