17
H8 C7 O2
C 0.100490 -1.300429 0.197288
C 0.943000 -0.291456 -0.694244
O -0.382071 -0.190633 2.211692
C 0.911583 0.634927 0.613130
C -1.108585 -0.289129 -0.093336
C 0.757936 -0.697147 1.427738
C -0.577193 0.668084 1.056823
C -0.277792 0.225924 -1.412174
O -0.349153 1.541471 -1.768477
H 1.528670 -1.202164 2.002587
H 1.608786 1.420870 0.760635
H -2.087365 -0.575809 -0.083482
H -0.542786 -0.453228 -2.252012
H -0.054742 -2.339137 0.008939
H -1.151484 1.565256 1.286062
H -1.151335 1.790666 -2.121181
H 1.832034 -0.508096 -1.139969