17
H8 C7 O2
C -1.225498 0.205763 -1.628716
C -0.588674 -1.096788 0.523096
O -0.542644 -1.438279 1.794318
C -0.186854 -0.152832 -0.584644
O -0.411449 -0.791535 -1.838383
C 0.640548 -1.753192 1.066275
C 0.957426 0.684534 -0.473595
C 0.378400 2.443893 1.397914
C 0.613675 1.692969 0.588468
H -1.105962 1.208811 -2.069164
H 1.826357 -0.002916 -0.278574
H 1.202639 1.141894 -1.439633
H 0.109582 3.241340 2.135380
H -2.299773 -0.196615 -1.739275
H 0.862631 -2.701895 0.698572
H -1.684423 -1.285873 0.311530
H 1.453993 -1.199230 1.536457