15
H6 C7 O2
O 2.016259 0.837648 0.877861
C -0.273308 1.520312 -0.925730
C -0.138617 0.251056 -0.024220
C -0.487461 0.093455 -1.544240
C 1.586963 -1.462081 0.488800
C -1.153907 -0.056246 0.939838
O 0.971725 -2.308676 0.021421
C 1.302103 0.002276 0.520167
C -2.008575 -0.327282 1.761403
H -1.481065 -0.078348 -1.694244
H -2.745762 -0.639792 2.469762
H 0.254927 -0.365363 -2.071142
H 0.656443 1.991450 -1.188437
H 2.528411 -1.667387 0.988267
H -1.028136 2.208968 -0.619506