19
H10 C6 O3
C 1.277749 -1.629539 -0.097385
C -1.026900 1.418372 0.124145
C 1.533143 -0.777388 1.033619
O 2.528908 -0.921523 0.012639
C -0.601291 -0.014097 0.728580
C -0.242299 1.743535 -1.110044
O 0.715032 0.253502 1.190624
C -0.884085 -1.116538 -0.213378
O 0.337614 -1.197832 -0.973207
H 1.383321 -2.692574 -0.119611
H 1.937851 -1.111764 2.020405
H -0.779780 2.163861 0.884479
H 0.855207 1.361208 -1.105393
H -0.598581 1.200320 -2.054255
H -1.169358 -0.114531 1.675171
H -2.090944 1.463386 -0.071564
H -1.751790 -0.773968 -0.860031
H -0.297498 2.787487 -1.346430
H -1.126281 -2.041895 0.281599