20
H11 C7 N1 O1
C -0.116953 -0.573072 0.432530
C 0.633995 -0.863925 -0.924623
C -0.470376 1.934461 -0.510314
C -0.257061 -0.675441 -2.179605
C 0.126384 -0.250421 2.886079
O -0.006438 1.938865 0.864350
C -0.780444 0.780527 0.400882
N -0.327286 0.061838 3.965319
C 0.792975 -0.659587 1.673687
H 1.525488 -0.241094 -0.869006
H -1.787942 0.754662 0.736319
H 1.000686 -1.880939 -0.826503
H -1.249485 2.658517 -0.715299
H -1.013322 -1.395709 -2.167681
H 1.159244 -1.691670 1.708844
H -0.876175 -1.348476 0.522061
H -0.762015 0.275455 -2.267769
H 1.668148 0.021865 1.525652
H 0.352154 1.968955 -1.203536
H 0.388416 -0.814795 -3.051411