17
H8 C7 O2
O 0.243790 -3.072603 -0.181213
C 0.284661 -1.867402 -0.016145
C 0.015251 0.293582 -1.273378
C -0.025410 0.768622 0.132849
O 0.278597 0.166972 1.272011
C 1.201303 0.463184 -0.744868
C -0.090374 -1.216553 1.299978
C 0.763652 -0.944368 -1.082206
C -1.012089 1.895350 0.442618
H -0.435130 2.845280 0.426149
H -1.147741 -1.364923 1.448042
H -1.830935 1.930185 -0.276624
H 0.404855 -1.806464 2.075871
H -1.442255 1.786378 1.391059
H 2.082227 0.918693 -0.741932
H 1.238715 -1.392594 -1.915234
H -0.529120 0.596675 -2.256966