17
H8 C6 N2 O1
C -0.384644 -0.048108 -0.720203
C -1.996304 0.001330 1.128663
C -0.901395 -0.880317 -1.789352
N -1.376298 -1.529139 -2.606276
C 1.006696 0.367154 -0.328102
C 0.355849 0.767668 1.049317
N -0.649838 -0.234228 0.699408
C 2.230880 -0.355072 -0.695818
O 0.203504 1.222006 -1.230207
H 2.086415 -1.464966 -0.838938
H 2.556254 0.041432 -1.678350
H -2.226112 1.057945 1.019799
H -2.742722 -0.656486 0.634593
H -0.051819 1.722335 1.126346
H 2.945541 -0.254571 0.101719
H 1.013043 0.474754 1.930395
H -2.069058 -0.231724 2.196993