21
H12 C8 O1
O -1.801803 0.544473 -1.899083
C -0.045260 0.572598 -0.107056
C -0.757930 -2.049682 -0.393535
C 0.087100 1.569469 1.038027
C 1.033091 -0.300388 0.015299
C -0.572753 1.097052 -1.457117
C -0.659398 -0.665539 0.162466
C 1.604606 -0.329743 1.419742
C 1.059688 1.069657 1.857143
H 1.425661 1.453483 2.749016
H -1.566385 -0.401415 0.651615
H 0.187968 0.999158 -2.175257
H 2.674266 -0.349840 1.391837
H -0.464707 2.438928 1.214658
H 0.139290 -2.329406 -1.016848
H -0.835862 -2.688092 0.445324
H -2.019731 0.781865 -2.815456
H -0.748480 2.134376 -1.313987
H 1.685670 -0.349976 -0.825459
H -1.640308 -2.093798 -1.014585
H 1.215291 -1.103168 2.073297