14
H6 C5 O3
O -1.074376 -1.791230 -1.928137
C -0.309529 -1.691416 -0.971224
C 0.755787 1.635804 -0.148000
C -0.463338 0.855439 -0.283470
C 0.023870 -0.482903 -0.203510
O -1.042793 0.620823 1.223953
C -0.176130 -0.567166 1.341944
O 1.255095 0.375436 -0.603899
H 1.038033 1.918317 0.825191
H 0.764337 -0.441175 1.887252
H -1.236603 1.167692 -1.039488
H 0.954683 2.386792 -0.988727
H 0.244950 -2.594587 -0.745656
H -0.733981 -1.391800 1.633782