18
H10 C7 O1
C 0.762536 0.957181 -1.075566
O -0.205040 -0.512862 2.069165
C -2.016001 -0.071604 0.842876
C 2.168238 0.803894 -1.594630
C -1.540514 -0.170000 2.267650
C 0.222646 -0.461335 -0.618636
C -0.741763 -0.453602 0.449479
C -1.316222 -1.414662 1.344528
H 1.116865 -1.064077 -0.230892
H -2.013834 0.199791 3.180423
H 2.830373 0.476129 -0.813250
H 0.117510 1.397750 -1.779187
H 0.458400 1.743241 -0.274338
H -2.976506 0.179475 0.495273
H 2.560600 1.729388 -1.969589
H -0.130049 -0.925194 -1.425184
H -1.519851 -2.359598 1.435737
H 2.222609 -0.053894 -2.303909