20
H11 C7 N1 O1
C -0.801056 0.472179 1.337335
C -0.549563 0.998670 -0.021664
C -0.943991 0.080893 -1.117496
C 0.864768 1.540597 -0.406695
C 0.394098 -1.517026 0.416451
C -0.069112 -1.149189 -0.965866
C 1.332318 -0.868572 -0.492655
N -0.055561 -0.759811 1.512471
O 1.741877 0.462996 -0.361680
H 0.562185 -2.561209 0.682064
H -0.249144 -1.168616 2.319942
H 1.229354 2.222951 0.461584
H -0.430103 1.156341 2.101610
H 2.172245 -1.477845 -0.813893
H -0.144548 -1.961849 -1.703509
H -1.796667 0.285283 1.502324
H -0.867193 0.503008 -2.106979
H -1.996838 -0.257532 -0.981578
H -1.198438 1.945580 -0.097008
H 0.805373 2.053127 -1.264763