22
H13 C8 N1
C 0.927347 0.986091 -2.089205
C -1.309251 -0.354654 0.138795
C 0.783138 -0.449813 -1.487607
C 0.084724 0.887066 0.905042
C -1.376650 1.062255 0.479261
C 0.233614 -0.324993 -0.113876
C 0.579394 -1.415364 0.847928
C -0.833496 -1.071122 1.511846
N -0.205499 0.140573 2.165550
H 1.618679 -1.237109 1.202649
H -1.465163 1.771477 -0.429023
H 0.538923 -2.469100 0.445657
H 0.023384 1.597066 -1.975898
H 0.139953 -1.075027 -2.078953
H -2.018667 -0.898947 -0.520074
H -2.042020 1.407516 1.288162
H 1.773516 -0.939921 -1.505663
H -1.547170 -1.539335 2.118710
H 1.066081 0.841550 -3.170295
H 0.828372 1.679316 1.043440
H 1.729218 1.467463 -1.611872
H 0.471584 -0.064992 2.835449