18
H9 C7 N1 O1
O 0.442747 4.877303 0.976398
C 0.768053 3.652023 1.301729
N -0.354200 0.412082 -0.345530
C -0.268504 -0.889264 -0.382226
C 0.556081 2.396103 0.845075
C 0.736065 -0.766475 0.728653
C 0.360280 1.000682 0.493000
C -1.618530 -1.600362 -0.020646
C 0.240602 -1.321331 -1.808419
H -0.258774 -0.836517 -2.531613
H 1.288311 -1.009932 -1.884844
H 1.751661 -1.023056 0.419876
H 0.460649 -1.006124 1.675033
H -1.503411 -2.666136 -0.042252
H 0.205274 -2.346836 -1.902520
H 1.478979 3.651935 2.101513
H -2.391579 -1.266752 -0.686426
H -1.893695 -1.257337 1.063176