16
H8 C5 N2 O1
C 0.436405 -0.431875 -1.301131
C -0.928747 0.186516 -0.971781
N 0.258936 1.039450 1.122634
C 1.189521 0.224617 1.004546
C -1.641776 -0.376619 0.136602
N 1.305495 -0.488121 -0.178023
C -0.884630 0.937986 0.316386
O 2.186802 -0.012255 1.864768
H -1.385202 -1.462075 0.379002
H -1.513586 1.885331 0.385207
H -1.444300 0.599828 -1.778291
H 0.331763 -1.418491 -1.701376
H 1.957162 0.738098 2.554335
H 1.887038 -1.339368 -0.082635
H -2.717410 -0.270322 0.272056
H 0.962495 0.187303 -2.022276