17
H8 C5 N2 O2
C 0.539535 1.282112 0.699822
C -0.882271 0.741146 0.474230
N -1.808062 -1.201396 -0.645309
O -2.994177 -0.788181 -0.331599
C -0.744109 -0.397851 -0.400313
C 1.477623 -1.034715 -0.044269
C 1.471767 0.536283 -0.356451
O -1.856190 1.103285 1.094819
N 0.498371 -0.652053 -0.841769
H 1.166083 -1.396835 0.913780
H -1.517666 -2.008212 -1.097308
H 1.456237 1.179860 -1.333907
H 0.828077 1.113088 1.700027
H 0.495768 2.415054 0.611031
H -2.971668 -0.078598 0.076779
H 2.569124 0.778747 -0.035882
H 2.271570 -1.591779 -0.483698