19
H10 C8 O1
C -1.145397 -1.217791 0.467727
C 0.943531 -0.744239 1.015469
C 1.230042 0.147480 -0.191056
C -1.228806 0.073829 -0.186378
C -0.019847 0.740802 -0.669374
C 0.097184 -1.982558 0.464250
O 0.042963 -0.075149 1.945354
C -1.234784 -0.214350 1.409163
C -0.100609 1.861625 -1.654096
H 1.855800 -0.264892 -0.894860
H 1.859497 -1.009923 1.592456
H -2.029984 0.091981 2.077980
H 0.544172 -2.418474 -0.418264
H -0.332803 2.737106 -1.145227
H -2.185166 0.418413 -0.542301
H -0.075994 -2.744754 1.248727
H 0.818822 1.927871 -2.251873
H -0.913531 1.641166 -2.441852
H 1.874909 1.031879 0.174177