16
H7 C6 N3
C -1.640238 -2.557277 1.496829
C -0.480686 0.765570 1.478290
N 0.697369 0.671916 -1.366930
C -1.245339 -1.557027 1.042304
C -0.023028 -0.368645 -0.774944
C 2.014649 1.143153 -0.827006
N -1.501428 0.052280 -0.746431
C -0.776981 -0.288791 0.458342
N -0.276412 1.599904 2.233501
H 2.153676 0.994462 0.210681
H 0.025213 1.418772 -1.623610
H -1.921456 -3.485636 1.940617
H 2.803972 0.591820 -1.345044
H 0.551236 -1.365123 -0.852472
H -2.508058 0.192456 -0.213448
H 2.127515 2.192133 -1.110672