16
H7 C7 N1 O1
O 1.136803 -1.439215 -0.434024
C -0.718707 1.410389 0.212820
C 0.707830 -1.875229 0.952116
C 0.369148 -0.248920 -0.206768
C -0.389259 0.787462 1.576040
C -0.153471 0.722443 -0.808950
C 0.689299 -3.012581 1.460146
C -0.120780 0.878809 -2.315073
N 0.309524 -0.436204 1.195448
H -0.271317 -0.036976 -2.852621
H -1.256971 0.497985 2.263672
H 0.759625 -4.042123 1.779404
H 0.878495 1.303229 -2.611402
H 0.172734 1.529413 2.203409
H -0.816178 1.655655 -2.504842
H -1.296795 2.305925 0.090618