19
H10 C7 O2
O -0.026613 2.822983 -0.551781
C 0.073758 1.782782 -0.146809
C 1.297389 0.934905 0.093586
C -0.392958 0.368360 1.803023
C -0.996025 0.834532 0.398583
C -0.688693 -0.469828 -0.209079
C -0.153879 -1.536113 -0.987512
C 0.615808 -0.265114 0.850323
O -0.544529 -1.505224 -2.381930
H -0.054357 1.156543 2.490470
H 0.874592 -1.828016 -0.931101
H 1.794842 0.647475 -0.830999
H -2.006850 1.285594 0.349051
H 2.079893 1.456862 0.740624
H -1.863626 -0.593231 -0.839584
H -1.053008 -0.385750 2.255883
H -0.558672 -2.528376 -0.558553
H 0.234906 -1.158936 -2.858954
H 1.368007 -1.019423 1.314751