25
H16 C8 O1
C 1.226025 -1.445945 0.135381
C -0.683527 2.087431 1.644515
C -0.862683 0.786357 0.860708
C -2.028832 1.746118 1.093839
C 1.768746 -2.447570 -0.867433
O 1.928514 0.814459 0.160195
C 1.090762 -0.070662 -0.514387
C -1.328123 -0.414439 -1.378604
C -0.407760 0.580991 -0.497363
H 1.457882 1.314092 0.794006
H 0.304995 -1.880058 0.599150
H -0.993467 -0.161106 1.478595
H -0.431281 1.967455 2.698446
H -2.290885 0.117827 -1.397639
H -2.735045 1.508524 1.811309
H 1.175372 -2.550251 -1.714759
H -2.364944 2.287424 0.214366
H 1.954997 -1.288401 0.982187
H -0.191486 2.886793 1.187805
H -1.449145 -1.280173 -0.788080
H 1.375395 -0.061723 -1.542335
H 2.764547 -2.073652 -1.285850
H -0.902579 -0.528550 -2.295365
H 1.926134 -3.384867 -0.381753
H -0.303616 1.489906 -0.996952