17
H9 C6 N1 O1
C -0.014788 -0.042519 0.159729
C 0.071758 0.401545 -2.253390
C -0.584284 -0.845183 -0.830885
C 0.815271 -0.970900 1.480672
C 0.872105 0.454921 1.246218
C -0.044314 0.287058 2.309736
O 1.389943 -1.945729 1.484059
N -0.696688 0.862130 -0.545325
H 0.753348 -0.287101 -2.557155
H 0.342155 0.032449 3.424630
H 0.647072 1.355398 -2.244899
H -1.014765 0.903319 2.260741
H 1.602056 1.200030 1.080685
H -1.606611 1.159486 -0.363827
H -1.676712 -1.219304 -0.729870
H -0.808122 0.441216 -2.862669
H -0.047404 -1.786790 -1.058432