18
H10 C6 N2
C 0.611372 0.563534 0.088561
C -1.086525 -1.211128 -0.827202
C 1.182826 -1.204757 -1.703270
N -0.197565 1.059558 -1.048298
C 0.074399 -0.418453 -0.889702
C -1.378727 0.764203 1.744541
C 0.190253 0.515200 1.513990
N -1.998841 -1.835532 -0.805631
H 1.610729 -1.919741 -1.106940
H 1.984606 -0.425569 -1.972020
H 1.648543 0.932935 0.035037
H 0.841952 -1.499157 -2.592989
H -1.475105 0.811366 2.784858
H 0.744082 1.242376 2.081947
H -1.678608 1.652560 1.301710
H 0.488921 -0.425581 1.893739
H 0.358053 1.423548 -1.744792
H -1.920379 -0.025344 1.246490