21
H12 C6 N2 O1
C 0.460008 -0.090767 0.037564
C 1.419284 -0.365167 2.217002
O 0.586095 -0.545874 -2.893214
C -0.617553 0.833508 -1.341657
N -0.448000 0.990518 0.023366
C -1.509741 1.273175 0.910857
C -0.517071 -0.521672 -1.944733
N 1.597359 0.029758 0.903073
C 0.005263 -1.300597 -0.649293
H -0.940540 1.668221 -1.900193
H 2.344847 -0.433960 2.716566
H 0.891222 -1.309924 2.399115
H -0.735295 -1.828489 -0.140250
H 2.387033 -0.107883 0.362384
H -2.340425 0.529397 0.901612
H -2.005435 2.282154 0.518728
H 0.870577 0.459582 2.758892
H 0.441832 -0.086177 -3.524688
H -1.217634 1.420633 1.958991
H -1.466995 -0.885987 -2.372858
H 0.795190 -2.010447 -0.941253