18
H10 C6 O2
O -0.319716 -0.891028 1.083936
C -0.992165 1.427479 0.736146
C -1.352634 0.019489 0.806749
C 0.257229 0.106222 -0.979449
C -1.091552 0.563646 -0.651368
C 2.007793 -0.794949 0.613606
C 0.706520 -0.962628 0.029824
O -2.034869 0.665254 -1.615619
H 1.050503 0.955668 -1.054938
H 0.265234 -0.329859 -2.034763
H -2.309429 -0.296268 1.145751
H 2.755937 -0.893087 -0.172142
H 2.182842 -1.581744 1.408018
H 0.047445 1.658548 1.223785
H -1.680834 2.182512 0.815368
H -2.118071 -0.084339 -2.078233
H 0.494945 -1.964663 -0.357998
H 2.130841 0.219727 1.081347