15
H7 C5 N3
C 0.504622 2.062421 -0.636325
C -0.097398 1.466940 0.420613
N -1.159617 -0.549539 -0.436355
C 0.115827 0.007117 0.007323
N 0.724009 0.773102 -1.173850
C -1.644494 -1.707614 -0.262536
C 0.762338 -1.032400 0.949076
N -2.067996 -2.785252 -0.224335
H 0.452943 -0.777285 1.975040
H 1.642584 0.469562 -1.631402
H -0.563783 1.880272 1.292193
H -1.776660 0.132060 -0.876595
H 1.855708 -0.915733 0.813729
H 0.727192 3.029502 -1.084010
H 0.524760 -2.053178 0.867449