20
H11 C7 N1 O1
C 0.838474 0.469184 -0.322949
C 0.213481 -0.357423 -1.413331
C -1.063788 -0.704262 3.050621
C 0.984199 -0.533689 -2.694782
C -0.053183 0.372700 0.876309
N -0.769719 0.694764 -1.363701
C -0.350869 -0.753518 1.801825
C -0.265353 1.518991 -0.155261
O -0.159647 1.611568 1.536464
H -0.132235 -1.298298 -0.998331
H 1.971039 0.611554 -0.159689
H -0.710660 1.170378 -2.231766
H 1.536694 0.328062 -2.938514
H -1.711136 -1.483726 3.120106
H -0.320051 -0.734590 3.836308
H 0.226037 -0.682053 -3.503156
H 1.645646 -1.396601 -2.671688
H -0.294989 2.565330 -0.359751
H -1.627831 0.272668 3.112676
H 0.043914 -1.671005 1.478614