14
H5 C5 N3 O1
C 0.272660 1.098973 -0.436164
C -0.759091 0.157960 0.053204
O 1.569687 -0.481249 1.476283
C 0.517109 -1.048062 0.770214
C -2.068314 0.342719 -0.554295
C 1.041545 0.164491 -1.388627
N -0.730877 -0.597589 1.232195
N -3.149361 0.584090 -1.026605
N 1.638983 -0.391775 -2.109848
H 0.611309 -2.024144 0.442877
H -1.406792 -1.347465 1.233562
H -0.095294 1.837133 -1.068376
H 0.353748 1.657445 0.422222
H 2.204679 0.047467 0.953368