14
H5 C4 N2 F3
C 0.886936 0.699170 1.201771
C -0.572180 -1.177755 -0.641862
N -0.022868 -2.369524 -0.803934
C -0.047723 0.050899 -1.010224
N -1.819879 -0.898761 -0.033424
C 1.024960 0.663393 -0.256219
F 1.124284 1.925875 -0.818172
F 2.148457 0.068055 -0.649943
F -0.638855 0.663873 -2.046156
H -2.651796 -1.211255 -0.589472
H -0.005225 1.283502 1.494330
H 1.718054 1.249643 1.639131
H -1.949050 -0.634081 0.925027
H 0.804901 -0.313013 1.589163