19
H10 C8 O1
C -1.616328 -1.608436 -0.734644
C 1.226938 1.140452 -0.760131
C 1.847680 0.210596 1.015427
C -0.367816 -1.039358 0.065208
C 0.625911 0.098351 -0.028962
C 2.238238 1.531020 0.294024
C -2.598421 -0.484382 -0.456714
O -1.314362 -0.483430 1.195370
C -1.821025 0.431495 0.335112
H 1.443603 0.200256 1.999279
H 1.118464 1.389634 -1.812472
H 0.292825 -1.934164 -0.119792
H -1.815963 1.513100 0.403795
H -3.634455 -0.404905 -0.884843
H -1.905370 -2.495956 -0.365997
H -1.471139 -1.670414 -1.779554
H 2.546678 -0.531467 0.913706
H 3.280633 1.672870 -0.092763
H 1.923878 2.464743 0.813943