21
H12 C6 N2 O1
C -1.885123 -1.605875 0.136738
C 2.079350 1.651607 -0.795742
C -0.984983 0.860797 1.545097
N 1.322710 -0.432949 -1.233802
C -0.639711 -0.981220 -0.157573
C 0.344415 -1.246463 -1.083604
C 1.079311 0.677977 -0.194426
N -0.203974 0.309969 0.413198
O 0.334342 -2.342593 -1.871676
H 1.418596 1.477977 0.867903
H 2.963434 1.720604 -0.137702
H -0.484353 0.243003 2.438602
H 2.643599 1.280032 -1.624426
H 1.568184 2.487261 -1.180199
H -1.890356 -2.500379 -0.442768
H -1.906990 0.335154 1.772069
H -2.021992 -1.893303 1.183229
H -0.449569 1.628856 1.940569
H -2.741078 -0.945470 -0.042434
H -1.654377 1.561693 0.926849
H 1.108600 -2.286669 -2.459887