21
H12 C8 O1
C 0.153173 0.151511 0.867940
C 0.955300 -0.135695 -0.264745
C 1.584371 -0.206073 1.071100
C -1.212010 -0.604486 1.018640
C 1.041611 0.888935 -1.270477
C -0.095082 1.733029 -1.640620
C 0.340768 0.572463 -2.580594
O 2.546501 -0.447681 1.669214
C -1.172805 -1.596141 2.152286
H -0.294045 -2.315820 1.911555
H -1.980659 0.104837 1.169336
H -2.025484 -2.127924 2.172137
H -0.879182 -1.170104 3.045396
H 0.715112 0.889536 -3.434475
H -1.012055 1.648462 -1.029637
H 0.051679 1.039856 1.459580
H -0.367198 -0.228920 -2.487625
H 0.039122 2.717036 -1.911711
H 2.026421 1.341836 -1.350059
H 1.033714 -1.158872 -0.623222
H -1.449247 -1.095786 0.056013