18
H9 C7 N1 O1
O 2.604949 0.987337 1.081166
C 0.689226 -1.534252 0.222019
N -1.052348 -0.567210 -0.950994
C 1.673754 2.002673 1.547641
C -0.508872 0.406644 -0.158504
C 0.604016 -0.148913 0.543964
C -0.326421 -1.797640 -0.678562
C -2.231553 -0.494825 -1.871963
C 1.410545 0.544718 1.558035
H -0.865058 1.390702 -0.199121
H 1.474149 0.064025 2.564979
H -0.582142 -2.626348 -1.334045
H -1.882454 -0.181181 -2.795789
H 1.949026 2.504188 2.448978
H 1.276239 2.596207 0.696629
H 1.410218 -2.267601 0.561302
H -2.776263 0.452317 -1.453033
H -2.867009 -1.330823 -1.782700