17
H8 C5 N4
N 0.563931 0.733026 -0.622467
C 1.170984 1.684312 -1.466975
C -0.697970 -1.694908 0.662370
N 0.940328 -0.539277 -0.928204
C -1.082998 -0.648205 1.516333
N -1.885245 -1.204135 0.448603
C 0.509929 -1.581544 -0.215725
C 0.011226 1.272376 0.610825
N -0.690958 0.712758 1.511737
H -1.377770 -0.929900 2.585223
H -0.731443 -2.817182 0.990888
H 0.399932 2.332196 -1.876221
H -1.886630 -0.487794 -0.238002
H 0.217490 2.266195 0.695795
H 1.603704 1.175458 -2.295931
H 1.879594 2.193262 -0.941272
H 1.055897 -2.466654 -0.436982