17
H8 C6 O3
O 1.912131 -1.108664 -0.573638
C -0.237673 -0.319249 0.632619
C 1.104654 -0.056892 -0.085772
C -1.105612 0.355580 -1.097481
O 0.684995 1.923654 -1.900206
C -0.734792 1.113679 0.119395
C -0.464638 -0.974684 1.929080
C 0.299132 0.906521 -0.998732
O -0.993447 -0.981187 -0.528885
H -1.120185 1.965377 0.613182
H 0.967347 1.470879 -2.737660
H -1.798767 0.464687 -1.888922
H 1.771290 0.559309 0.592854
H -0.065690 -2.011420 1.946174
H 1.232563 -1.803331 -0.932646
H -1.497515 -1.042557 2.169785
H 0.046198 -0.461696 2.740818