23
H14 C7 O2
C -0.262484 -1.392495 1.245692
C -0.139016 1.770721 -1.063012
C -0.048456 1.057172 0.284828
C -0.858654 -0.292956 0.447314
O -2.080098 0.278026 1.007834
C -0.631697 1.036798 -2.348638
C 0.823345 -2.166312 0.559290
C 1.438603 0.966844 0.606502
O 0.177869 2.933697 -1.162714
H -0.421209 1.730641 1.022285
H -1.450185 0.344041 -2.232738
H -0.920408 1.782558 -3.128071
H -2.643153 -0.522396 1.196929
H 1.840966 1.991877 0.612243
H 1.631023 0.636896 1.604315
H -1.119678 -2.119677 1.392474
H 0.993691 -3.120599 1.085566
H 2.043106 0.430662 -0.092803
H 0.220451 0.482902 -2.767681
H 0.034488 -1.060981 2.223040
H -1.116180 -0.677837 -0.551763
H 1.838062 -1.656492 0.568635
H 0.649579 -2.433125 -0.509517