22
H13 C8 N1
C 1.463951 0.779531 0.895927
C -1.223046 -0.132797 -0.595030
C -0.235618 -0.474771 2.427423
C 1.134449 -0.540589 -1.094555
C 0.188112 -0.080756 1.045667
C -1.630346 0.409776 -1.864377
C 0.029053 -1.084690 -0.184920
C 1.027751 0.841257 -0.575168
N -0.454057 0.951560 0.141827
H 2.458064 0.303108 1.057502
H 2.121413 -1.012960 -0.937165
H -1.135090 -1.034284 2.421248
H 1.320798 1.667798 -1.252249
H 1.406436 1.770088 1.394011
H -2.053404 -0.476973 -0.008419
H 0.988457 -0.673390 -2.160707
H 0.553171 -1.144135 2.891429
H -0.391037 0.372503 3.116593
H -2.051108 -0.337207 -2.517887
H -0.037572 -2.174577 0.004780
H -0.963478 0.969046 -2.470126
H -2.516873 1.102537 -1.735872