17
H8 C8 O1
O -0.015562 -1.701504 0.756717
C -0.340713 0.107603 -1.232095
C -1.382821 -1.016577 -0.630585
C 1.035728 -0.001790 -0.562161
C 0.306906 0.360298 1.438458
C -0.699843 1.146620 0.036458
C 1.061896 -0.852918 0.710846
C 0.887454 1.224519 0.363147
C -0.813723 -0.442400 0.608867
H -1.569331 1.874979 0.023384
H 2.044498 -1.171311 1.082985
H -0.444074 0.440011 -2.262904
H 0.264984 0.617035 2.418814
H 1.423584 2.185330 0.451016
H -2.462649 -0.708937 -0.852765
H -1.205432 -1.994780 -1.044178
H 1.909129 -0.066141 -1.306002