21
H12 C8 O1
C -0.196933 1.180072 0.571222
C 0.426238 -1.167114 -2.049612
C -0.338493 -2.167227 -1.158408
C 0.045795 0.952533 2.016892
C -0.668342 0.101032 -0.348662
C 0.171906 0.126500 -1.658122
O -0.740089 2.472391 0.185442
C -0.542913 -1.335025 0.144885
C 1.230544 1.182484 1.084649
H 0.468654 1.048931 -2.063059
H 1.776661 2.097265 1.162179
H 1.838945 0.329879 0.869001
H -0.201502 1.786488 2.701784
H -0.114085 0.045834 2.494869
H 1.022842 -1.457522 -2.887870
H -1.263701 -2.452677 -1.631316
H -1.434722 -1.713468 0.701729
H -1.682129 0.360449 -0.597745
H 0.332864 -1.473162 0.787324
H -0.397049 3.153718 0.678763
H 0.265525 -3.071355 -1.003925