25
H16 C8 O1
C -1.340334 0.266523 1.162247
C -0.074995 2.433609 0.905261
C 0.317893 -0.119714 -0.971805
C -0.930657 1.458428 0.280645
C -1.802940 -0.857597 0.339916
C 2.289905 -1.649967 -0.829115
C -0.834170 -1.266237 -0.832958
O -0.394083 1.138337 -0.955141
C 1.579879 -0.435715 -0.204359
H -2.736470 -0.604576 -0.146903
H 0.750605 2.839942 0.209848
H -0.329677 -2.181146 -0.657287
H -1.338995 -1.350176 -1.775674
H -2.078120 0.611656 1.945040
H 2.099108 0.461761 -0.093373
H -1.982038 -1.720171 0.968365
H 0.685649 -0.016571 -2.011511
H 1.949285 -1.847779 -1.830712
H -0.387639 -0.071031 1.768874
H 1.304251 -0.642944 0.872518
H 3.325819 -1.345411 -0.799925
H -0.631344 3.392693 1.101409
H 0.429235 2.176644 1.807844
H -1.954733 1.895630 -0.012963
H 2.084558 -2.566199 -0.240213