22
H14 C7 O1
C 0.587862 -0.229246 1.041572
C -0.837385 0.598291 -1.135993
C -0.641586 -0.526488 1.847048
O 1.509367 0.973625 -0.779392
C 0.410839 0.134308 -0.474663
C 1.376566 -1.507437 0.612668
C -1.235433 1.989835 -0.688635
C 0.789823 -1.382046 -0.793165
H -0.379959 -0.873014 2.851338
H -0.457346 2.712445 -0.874798
H 1.600581 1.054031 -1.733707
H -1.705152 -0.137456 -0.857067
H 1.097269 -2.421200 1.109313
H -1.569125 2.043393 0.398012
H 1.174388 0.572326 1.549450
H -0.102751 -1.983399 -0.959387
H 2.456279 -1.379424 0.621769
H -1.300888 -1.316915 1.417699
H -2.158926 2.331141 -1.252732
H -0.803075 0.536081 -2.211859
H 1.450777 -1.563708 -1.659617
H -1.262123 0.374853 1.972185