18
H9 C7 N1 O1
C -1.826848 -0.640699 -0.923567
C 1.308105 0.420449 -0.550429
O -0.761195 -1.444021 -1.102847
C 0.043251 0.036937 1.511238
C 0.561757 -1.176186 0.873051
C -0.833247 1.361329 -0.533138
C 0.278281 1.159816 0.466934
C 0.591661 -0.977738 -0.630697
N -1.912341 0.511387 -0.683364
H -2.768583 -1.226325 -1.084340
H 0.935272 -2.058707 1.278862
H 1.285489 -1.684526 -1.136453
H 0.612000 0.290037 2.479693
H -0.869423 2.251020 -1.062958
H 2.308484 0.307158 -0.037178
H 0.638433 2.052862 0.840922
H -0.983086 -0.020009 1.843914
H 1.391951 0.837214 -1.549647