16
H7 C6 N1 O2
C -0.046473 -0.790557 0.594437
C 0.624764 -0.168244 -0.565882
C -0.891843 0.306654 1.410947
C 1.839314 0.949065 -2.599562
N -1.309035 -0.566519 3.882110
C -1.189029 -0.145451 2.790327
O -2.084776 0.637504 0.657220
C 1.141441 0.396710 -1.417501
O -0.972037 -1.834727 0.165028
H 0.692962 -1.207482 1.265547
H 2.656398 1.570898 -2.228132
H -0.359902 1.258289 1.457831
H 1.191775 1.625527 -3.138431
H -1.368672 -2.177374 0.948399
H -2.175882 -0.110197 0.029967
H 2.250999 0.255909 -3.252333