21
H12 C8 O1
C 1.668272 -0.154006 -0.379271
C 0.119797 1.021293 1.331245
C -1.652212 -0.456354 -0.157898
C -1.235179 0.774180 0.662167
C -1.312508 0.851222 -0.840912
C 1.302873 0.095601 1.100796
C 0.573344 -0.570567 -1.277877
C -0.551024 -1.457240 -0.593046
O -0.156376 0.777485 -1.641928
H 0.360111 2.074177 1.176110
H 0.859247 -0.985071 -2.254251
H -0.924143 -2.106134 -1.397162
H 2.196783 0.695417 -0.868672
H -2.626951 -0.776807 -0.085788
H 2.354513 -1.091311 -0.407139
H 2.176615 0.593439 1.539545
H 1.163833 -0.847979 1.588939
H -0.060362 0.925954 2.401073
H -2.039096 1.499478 -1.314911
H -0.123417 -2.093984 0.224818
H -2.094125 1.231216 1.194186