17
H8 C5 N2 O2
C 0.393568 -0.024762 -0.549397
O -0.981751 0.055392 -1.006211
C -1.138996 0.477441 -2.262966
C -0.862658 -1.714075 1.760153
C 0.526612 -0.169817 0.993677
C 1.138982 1.339064 -0.425516
N 0.231197 -0.801657 1.972976
N 1.435263 0.942794 0.946377
O -2.212960 0.552428 -2.822947
H -1.649869 -1.484062 2.486187
H 1.678306 1.426622 1.734429
H -0.210270 0.697725 -2.811462
H -0.555119 -2.743537 1.888168
H 2.024595 1.526196 -1.037802
H 0.975882 -0.721308 -1.074170
H 0.561318 2.290159 -0.550511
H -1.354092 -1.648626 0.759041