18
H10 C5 N2 O1
C 0.218620 -1.319431 0.917212
N 1.553368 0.468791 -1.430095
C 0.321149 0.215305 -0.974365
C -0.636360 -0.000527 -2.075387
C 0.669565 1.163649 1.350650
N -1.939182 -0.168354 -1.996233
C -0.043783 0.043557 0.499124
O -1.450463 0.405164 0.708362
H 0.226231 1.102497 2.371485
H 0.518207 2.164536 0.912750
H -0.244855 0.125396 -3.065202
H 1.344567 -1.584379 0.754206
H -0.323296 -2.081052 0.287968
H 2.171466 0.658967 -0.631188
H -1.892944 -0.007731 0.247139
H -2.257877 -0.657223 -1.227246
H 0.001736 -1.510772 1.916924
H 1.763828 0.981605 1.433897