22
H14 C8
C -0.423996 -0.386763 -0.473194
C 0.150592 0.864346 1.517715
C -1.685311 -1.212051 -0.469714
C -0.471310 1.862056 0.441234
C 2.040497 -0.554036 0.339793
C -0.533160 -1.516554 -1.442698
C 0.515108 -0.448318 0.761612
C -0.400679 1.142330 -0.914651
H -1.220469 1.346329 -1.586746
H -1.478618 2.058128 0.758078
H -0.731327 -1.269669 -2.410225
H -2.583508 -0.737075 -0.942544
H 2.361399 0.416383 -0.226661
H -1.917061 -1.852148 0.417921
H -0.020484 -2.450610 -1.194015
H 2.245414 -1.405899 -0.320134
H 0.254230 -1.337518 1.347026
H -0.462657 0.649314 2.300283
H 2.611060 -0.582961 1.211436
H 1.071136 1.267557 1.983407
H 0.555541 1.338259 -1.492690
H 0.123553 2.808889 0.394756