18
H9 C7 N1 O1
O -0.661362 1.560065 1.385463
C 1.130591 -1.382138 0.132207
N -1.170938 0.862969 -0.702192
C 1.818352 -0.768765 -1.032843
C 0.006289 -0.668876 0.910683
C -0.615067 0.558627 0.446729
C -1.654411 2.146150 -0.462780
C -1.377769 2.596987 0.822104
C -0.255544 -1.957215 0.110841
H 1.042630 -0.186565 -1.652317
H 2.655928 -0.099076 -0.863684
H 2.173348 -1.547434 -1.726991
H 1.846123 -1.888009 0.834345
H -1.521323 3.487053 1.320916
H -0.461805 -2.810455 0.619599
H -0.791603 -1.823494 -0.833121
H -2.212863 2.684181 -1.245779
H 0.049488 -0.764002 1.936783