16
H7 C6 N1 O2
C -1.348012 0.057817 0.763358
C -1.197263 0.193126 -1.411722
O 0.359043 1.797596 1.840580
N -0.106409 -0.563467 1.577580
C 0.646085 -0.165870 0.316806
C -0.605363 -0.708347 -0.320081
C 2.088363 -0.283155 -0.044214
C 0.003473 0.908935 1.229300
O -1.835219 1.010186 -0.379179
H -0.657164 -1.795424 -0.396759
H -0.575861 0.837941 -2.064622
H -2.234204 -0.112395 1.372534
H 2.702336 0.207024 0.715340
H -1.922769 -0.300658 -2.021500
H 2.375420 -1.311656 -0.140296
H 2.307550 0.228355 -1.037145