19
H10 C7 O2
O -3.141872 0.349389 0.302009
C -2.028588 0.683703 -0.200398
C 0.263511 -0.349561 -1.170808
C 0.953802 -0.030726 0.201801
C -0.088979 -1.012515 0.922846
C -0.652143 -1.383922 -0.533911
C 1.183362 1.424993 0.623357
C -1.232163 -0.172043 -1.068649
O 2.190255 -0.773198 0.142972
H 0.413568 -1.787357 1.351779
H 1.909408 1.877337 -0.064608
H -1.709403 1.770119 0.027304
H -0.963360 -2.386294 -0.808740
H 0.221787 2.047732 0.509089
H 0.801209 -0.502855 -2.068913
H 1.525971 1.478502 1.615840
H -1.705260 -0.354960 -2.055319
H -0.812823 -0.519918 1.624415
H 2.871730 -0.358392 0.649934