17
H8 C7 O2
O 1.122701 2.216637 0.146717
C -0.395944 0.591133 -1.211408
C -1.231072 -0.620777 0.889035
C 1.094561 0.333833 -1.576448
C 1.120113 -0.961712 -0.693322
C 0.805145 1.389766 -0.657348
C -0.376737 -0.744291 -0.446441
C -0.783478 0.304042 2.077347
O -2.196543 -1.281927 0.992857
H 1.801735 -0.877566 0.117226
H 1.383595 -1.919105 -1.265885
H -1.014834 1.340634 1.820642
H -1.214197 -0.009384 2.967475
H 0.330392 0.303060 2.187419
H -1.164853 0.970403 -1.799233
H -0.864587 -1.494734 -1.039461
H 1.584003 0.459957 -2.509161