25
H16 C9
C 0.601151 0.498709 -1.388983
C 1.215755 0.355575 1.465629
C -0.808566 -0.143252 -0.972865
C -1.089199 1.686521 1.603247
C -0.282946 0.357509 1.600730
C 1.662145 -0.456410 -0.807437
C 1.051131 -0.842980 0.567056
C -0.489915 -0.690857 0.426115
C -1.210009 -1.322120 -1.907089
H -1.121798 -1.515139 0.700895
H -0.957525 2.274551 0.708218
H 2.589370 0.084793 -0.679791
H -0.417678 -2.040073 -2.010778
H -2.146721 1.533644 1.833729
H 1.778973 -1.376270 -1.395672
H 0.613534 1.442259 -1.110087
H -0.687230 2.349769 2.417414
H -1.413533 -0.966086 -2.947083
H 1.577834 1.319884 0.987623
H -1.568402 0.600415 -1.019540
H 1.767473 0.225657 2.404058
H -2.069260 -1.838014 -1.484361
H -0.573447 -0.228426 2.562398
H 0.665428 0.465502 -2.504633
H 1.313456 -1.775169 0.951182