20
H11 C7 N1 O1
O -2.269137 -0.484866 0.906687
C 1.747815 -0.424560 -0.574109
N 0.674144 -1.162907 -1.364654
C -0.006566 0.409365 0.948686
C -0.716741 -0.913127 -0.888230
C 1.275875 0.342832 0.504429
C -0.336986 1.202527 2.249544
C -1.039688 -0.301763 0.441721
C -0.361231 -0.135572 -2.024616
H -1.426633 -1.781725 -1.084425
H -2.793858 0.335581 0.661386
H -0.713551 -0.365383 -3.052745
H 2.257900 0.222274 -1.333526
H 2.472517 -1.118022 -0.324356
H 0.737532 -1.869749 -1.927527
H -0.792516 0.478515 2.921765
H 2.040050 0.921103 1.046738
H -0.117911 0.963109 -1.888118
H -1.163870 1.998845 2.115290
H 0.532846 1.683537 2.666032