21
H12 C7 N2
C 1.477622 -0.490084 -0.527801
N -0.277398 -3.602122 -0.777243
C -0.811551 -1.096294 -0.792699
C -0.006491 -0.039981 -0.729813
C -0.993870 1.842079 0.659820
C -0.447377 1.415411 -0.655979
N 1.374541 -1.904106 -0.646111
C -0.059558 1.548644 1.836606
C 0.062045 -2.383412 -0.725685
H 2.101833 -0.007383 -1.253304
H 2.134552 -2.503218 -0.658959
H -0.449102 2.046389 2.737039
H -1.864580 -1.186773 -0.867764
H -1.087865 2.951807 0.612105
H -0.071847 0.483000 2.112752
H -1.334459 -3.678597 -0.893887
H 0.476349 1.998036 -0.940037
H -1.137398 1.584072 -1.431069
H 0.945127 1.903926 1.673170
H 1.908957 -0.236718 0.385085
H -1.939513 1.355331 0.883776