19
H10 C7 O2
C -1.788139 0.611361 0.460388
C 0.481120 0.988880 0.871533
O 1.566454 1.463949 1.330794
C 0.423551 -0.403909 0.214130
C -0.839765 1.517657 0.855418
O 0.817124 -0.444444 -1.200591
C 1.393131 -1.401636 0.920199
C 0.295353 0.445210 -2.042306
C -1.092280 -0.792471 0.309246
H -0.834126 0.522677 -2.099214
H 0.603318 1.506191 -1.846783
H 1.152668 -1.377366 1.930962
H -1.292889 -1.415136 1.220406
H 2.403612 -1.029809 0.805381
H -1.425365 -1.326296 -0.559533
H -1.027020 2.589158 1.077622
H -2.775512 0.710333 0.315394
H 1.297077 -2.387450 0.506133
H 0.641707 0.223095 -3.069204