18
H9 C7 N1 O1
C -0.742919 0.895509 -1.519539
C -0.854983 -0.750906 -0.110688
C -0.139787 1.409180 0.845164
C -1.173424 0.711922 -0.048229
C 1.259757 -1.904895 0.383110
O 2.207016 -2.149500 1.148454
C 1.091340 0.568943 0.687979
C -0.994673 -0.505179 -1.549364
N 0.549809 -0.751978 0.341920
H -1.407554 -1.563792 0.402817
H 0.019526 1.459093 -2.008182
H 1.604294 0.449595 1.660592
H -1.399007 -1.039665 -2.282732
H 0.882383 -2.700525 -0.353739
H -2.282288 0.951139 0.120493
H 1.817807 0.897679 -0.034593
H -0.472736 1.488436 1.816539
H 0.035448 2.534951 0.500004