15
H6 C5 N2 O2
N -1.767552 -2.755939 1.106537
C 0.901511 0.385523 -1.882095
O 0.525850 0.604984 -3.086404
C -0.100941 0.164173 0.405617
C -1.598795 -1.575591 1.136911
C -1.345236 -0.026604 1.150025
O 1.989696 1.369395 0.660765
C 0.151612 -0.437234 -0.918759
N 0.755351 0.843471 1.139425
H 2.449512 1.710691 1.315833
H -1.319149 0.674386 1.878954
H -2.175269 0.214163 0.754889
H -0.867327 -0.677136 -1.349090
H 0.576134 -1.357723 -0.798868
H 1.824593 0.863415 -1.513735