15
H6 C8 O1
C 1.959334 -0.675851 -0.115175
C 3.192132 -0.743728 -0.007321
C -1.571013 -0.316732 0.505001
O -0.775451 1.600561 2.143545
C 0.622103 -0.527192 -0.304157
C -0.445336 -1.230077 0.254901
C -0.026582 0.696686 -1.098069
C -1.310078 0.850574 -0.290470
C -1.100011 0.944056 1.226159
H -0.292312 0.413143 -2.084529
H -2.537564 -0.782014 0.749540
H 4.195316 -0.927819 0.126474
H 0.614105 1.514309 -1.065293
H -2.166568 1.461351 -0.686849
H -0.358096 -2.277258 0.646260