18
H10 C6 O2
O 0.547406 0.167682 -2.081313
C 1.386829 -0.839088 -1.666595
C 0.082026 -0.040687 0.420499
O -0.999167 -1.011516 0.044215
C 0.704156 -0.286663 1.687061
C 1.027808 0.230240 -0.772650
C -2.005038 0.032100 -0.239121
C -1.127565 1.125162 0.467001
H -1.412383 1.258528 1.498346
H -0.912732 1.979791 -0.106330
H -2.087447 0.198762 -1.290080
H -2.906182 -0.198560 0.274929
H 1.674065 1.076097 -0.510045
H 1.486930 -1.053240 1.587013
H 2.387850 -0.851922 -2.193952
H 1.233806 0.628063 1.994543
H 0.858133 -1.833005 -1.594887
H 0.061488 -0.581756 2.481345