16
H7 C7 N1 O1
O -2.146574 1.064035 -1.718366
C -0.658032 0.369926 -0.281406
C 0.712093 0.189278 -1.039042
C 0.117318 1.423926 0.604403
C -1.641077 0.844716 -1.145448
C 1.399327 -0.497514 0.074299
C -0.911720 -0.993466 0.433579
C 0.505846 -1.406188 0.705611
N 1.327886 1.036130 -0.072248
H 2.477571 -0.779918 0.002233
H -1.426578 -0.904449 1.361887
H 1.005966 0.104610 -2.092362
H 0.049403 1.127566 1.692286
H -1.468282 -1.667310 -0.238838
H 0.785982 -2.293847 1.229858
H -0.129113 2.382491 0.483573