18
H9 C7 N1 O1
C 0.484533 0.164761 -0.836439
C 0.196518 0.626635 1.783856
N 1.414515 1.301620 -2.892862
C 0.887319 0.719176 0.432041
C -0.013587 1.808602 0.959270
C -0.758214 -0.670495 -0.867031
C 0.963249 0.769879 -1.933061
C -0.593664 -2.098056 -0.438140
O -0.897023 -1.392964 -1.882971
H -1.759900 -2.508295 -0.589141
H -0.986045 2.087595 0.510667
H 0.502847 -2.469582 -0.740463
H -1.631510 -0.136502 -0.378168
H -0.460764 -2.273576 0.654105
H 2.010251 0.755040 0.480180
H 0.853440 0.593789 2.577356
H 0.498181 2.749909 1.255853
H -0.710147 -0.027541 1.904956