17
H8 C6 N2 O1
C -1.072051 0.624376 0.381890
C 0.049730 -0.275685 0.579153
C -0.006507 0.430015 -1.780228
N 0.048258 -1.321298 -0.202883
C -1.243761 0.834589 -1.066255
C 0.583041 -0.704759 1.949680
N -2.297561 1.197760 -1.577320
C 0.857289 -0.240351 -0.703007
O 1.996835 -0.450242 1.938768
H 0.072033 -0.152973 2.722907
H 0.361230 -1.751264 2.109587
H -2.350062 1.043512 -2.637989
H -0.103897 -0.273246 -2.679436
H 0.501585 1.291577 -2.216238
H 2.401101 -0.984354 2.707975
H 1.942456 -0.340514 -0.659260
H -1.739711 1.072854 1.132641