12
H6 C4 N2
N 1.267170 -1.076275 0.663211
C 0.546107 0.940708 0.216503
C -0.374961 -0.051879 -0.130411
C -1.709599 0.092948 -0.842145
C 1.625975 0.190350 0.761872
N 0.010142 -1.247195 0.109289
H 1.766608 -1.908240 0.862866
H 2.571089 0.576635 1.233053
H 0.459395 1.985018 0.157658
H -2.550702 -0.303592 -0.273766
H -1.657443 -0.362674 -1.819881
H -1.953811 1.164190 -0.938250