16
H7 C6 N1 O2
C 0.232032 0.569502 -1.001775
O -0.356521 -0.768476 -1.147326
C -0.225049 -1.485372 -0.020491
O -0.475044 2.784312 -1.687676
C 1.104929 -0.755033 0.650518
N -1.031281 -1.143892 1.244640
C 0.095293 -0.389017 1.702515
C -0.753280 1.597033 -1.705520
C 0.554768 0.608121 0.553081
H 0.860530 1.624208 0.885745
H 0.351647 -0.194269 2.725133
H -0.255050 -2.546798 -0.204148
H 2.120324 -1.065291 0.644826
H -1.523087 1.050619 -2.221120
H 1.154840 0.766138 -1.422972
H -1.855047 -0.651786 1.004548