21
H12 C6 N2 O1
C 0.358005 -0.282709 1.218053
C -1.689425 0.400696 1.091107
N -0.426503 0.574488 0.470187
C 0.945495 1.364017 -1.387572
N 1.619271 -0.153891 1.480138
C -0.527673 -1.335885 1.812017
C -0.457893 -0.637675 -1.731050
C -0.323032 0.707575 -1.031263
O -1.801753 -0.633160 1.849796
H 2.155102 -1.135307 1.571032
H -2.509123 1.191082 1.001860
H 0.937126 1.754959 -2.394487
H 2.190819 0.470247 0.926934
H -1.298089 -1.243735 -1.341318
H -0.617640 -2.236375 1.210734
H 1.848465 0.805362 -1.258448
H -0.199894 -1.590846 2.873873
H -0.603380 -0.376227 -2.786125
H 0.468960 -1.256771 -1.657993
H 1.127668 2.310273 -0.616327
H -1.196510 1.303883 -1.301178