21
H12 C8 O1
C 0.656046 -1.375703 -1.002977
C 0.004943 0.488757 1.530293
C 0.177739 1.063087 -1.340086
C -0.394245 1.814931 0.751461
C 1.135283 0.079592 -1.548839
C -0.604344 -0.902303 1.211236
C -0.553288 -1.382768 -0.161446
O 0.528464 -2.202435 -2.052539
C -0.451761 1.806750 -0.656204
H 1.608929 -1.656997 -0.252175
H 1.246711 -0.011817 -2.589313
H -1.349804 2.139422 1.112849
H -0.915956 -2.463031 -0.224594
H -0.028432 0.687854 2.551823
H 2.066537 0.313994 -1.065528
H 1.080919 0.318956 1.313402
H -1.445713 -0.869677 -0.755450
H -1.658962 -0.883365 1.547773
H -1.306872 2.136273 -1.234359
H 0.308302 2.566663 1.066923
H -0.104489 -1.668197 1.797737