19
H11 C5 N1 O2
C -0.622271 0.559350 2.042795
N -1.129079 0.808048 -0.408581
C -0.521938 1.411690 -1.530920
O -0.500104 0.648351 -2.702285
C -0.297215 0.342845 0.621236
C 0.424166 -0.902729 0.444988
C 0.914278 -1.374719 -0.938333
O 1.575817 -0.840087 1.342587
H -1.700505 0.787327 2.196370
H 0.118142 -1.313611 -1.701894
H -0.710169 1.506143 -3.306564
H -0.417256 -0.303255 2.735686
H 1.237753 -2.433158 -0.914295
H -0.007316 2.408967 -1.309223
H -0.040710 1.358205 2.433827
H -1.799897 1.521584 0.023715
H 2.010033 -1.720179 1.440413
H -0.272334 -1.725239 0.805510
H 1.738624 -0.739559 -1.275045