19
H10 C8 O1
C 0.934538 0.437245 0.782013
C -1.672598 -0.277312 -0.898479
C -1.468080 -0.429632 1.595829
C -0.818419 -0.322309 0.357131
C 1.055548 0.321143 -0.633592
C 1.813822 1.102412 -1.585348
O 1.047974 -1.121485 -0.847642
C -2.150546 -0.591557 2.652028
C 0.487317 -1.139304 0.510188
H 0.648063 -2.005045 1.009780
H -2.369113 -1.095062 -0.823262
H 2.070041 0.315284 1.285395
H -1.156082 -0.321729 -1.745619
H 1.861526 2.133010 -1.366949
H -2.202919 0.717803 -0.842580
H -2.702871 -0.658073 3.587567
H 2.819063 0.680400 -1.664385
H 0.491106 1.311073 1.224355
H 1.311642 0.943148 -2.596416