19
H10 C6 O3
C -0.307293 -0.736539 -1.495885
C 1.874928 0.597346 0.749025
O -0.651500 -0.703399 1.787430
O 2.296818 0.277976 -0.603607
C -1.895817 -0.725356 1.307114
C -0.313839 0.496280 -0.485168
C -0.991706 0.352137 0.928822
C 1.082385 1.056633 -0.341116
O 0.822834 -1.543979 -1.538188
H -1.132094 -1.339044 -1.198860
H 2.332323 1.287230 1.429235
H 1.558126 -0.916819 -1.564994
H -2.678800 -0.461295 1.986605
H 1.580887 -0.413074 1.208031
H -0.921286 1.270894 -1.018256
H -2.140243 -1.565936 0.754312
H -0.582737 -0.354966 -2.506889
H 1.269077 2.045769 -0.794291
H -1.202075 1.376120 1.396696