16
H8 C5 N2 O1
C 0.298964 1.996144 0.633624
C -1.816202 -0.664577 -0.738348
N -1.616452 0.690570 -0.293643
C -0.609883 -1.457477 -0.584747
C 1.697041 -0.809236 0.385029
N 0.348736 -0.449912 0.047856
C -0.342027 0.774427 0.053942
O -0.333015 -2.612113 -0.719904
H 2.400779 -0.352031 -0.347588
H -2.726693 -1.231325 -0.546982
H -2.328417 -0.690140 -1.693570
H 1.816393 -1.861165 0.317584
H 0.009486 2.831299 -0.137954
H 1.348899 1.923726 0.734226
H 2.012750 -0.399238 1.343082
H -0.160378 2.311093 1.547393