18
H9 C6 N1 O2
C -0.517400 1.267149 -1.428961
C -0.029093 -0.384554 0.454448
C 0.595932 -0.765414 -0.743237
C -0.786272 -0.161210 -0.901157
C 1.110018 0.491488 0.057001
O -1.193264 -0.231392 2.608883
N 0.834922 1.543541 -0.818796
C -0.363770 -1.022315 1.723104
O 1.408437 -1.572210 -1.484944
H -0.502849 1.310420 -2.442624
H 0.667134 -2.154226 -1.899792
H 1.963980 0.662543 0.817322
H -0.789481 0.640524 2.732231
H -0.920957 -1.996821 1.575398
H 0.578513 -1.370219 2.288303
H -1.660249 -0.731014 -1.069783
H 0.890195 2.507822 -0.485061
H -1.285813 1.965897 -0.982326