17
H8 C6 O3
O 2.920695 1.194243 0.087200
C -0.874508 -0.260866 -1.875004
C -0.664494 -0.585078 -3.002898
O -2.311563 -0.598590 -0.237056
C -1.230805 0.063932 -0.500605
C 2.091354 0.499121 0.028515
C -0.122377 -0.181547 0.604778
O 0.806824 0.877834 0.540856
C -0.713085 -0.183808 1.957251
H 0.034868 0.043814 2.729313
H -1.229245 -1.130712 2.256324
H 2.093295 1.145942 -0.960322
H -1.435184 1.170216 -0.419959
H 0.316233 -1.194152 0.409090
H -1.530002 0.614009 2.036083
H -0.453376 -0.821254 -4.043675
H 2.301334 -0.653103 0.390098