20
H11 C7 N1 O1
C 1.098633 -2.410238 2.140851
C 0.708532 -0.999300 0.137466
C -0.930199 1.081724 -0.497402
C -0.227940 -0.129520 -0.642674
C -1.467888 1.658411 -1.847573
C 1.068365 0.029822 1.600211
C 0.374844 -1.245535 1.589688
N 1.672155 -3.331584 2.598605
O 1.280043 0.181108 -0.864873
H 0.945614 -1.970179 -0.374914
H 1.386160 -0.058895 -1.872506
H -1.964405 2.618967 -1.666218
H -0.602984 1.870391 -2.464383
H 2.092420 0.030967 1.884413
H -0.852439 -0.874604 -1.181505
H -1.820743 0.912769 0.158880
H -0.750003 -1.189743 1.878263
H -2.154675 0.965748 -2.356155
H 0.516808 0.948037 1.839469
H -0.372311 1.911685 -0.059664