19
H10 C6 O3
C 0.949355 -0.871910 -0.633945
C 0.957047 0.499725 0.730871
C -0.775957 -1.244176 0.989556
O 0.064164 1.492835 1.158290
C -0.507504 2.282706 0.239874
C 0.682977 -0.966407 0.857081
O -0.993971 -0.445821 -2.272817
C -0.467935 -0.668264 -1.067381
O -1.414042 -0.592955 -0.174626
H -0.458124 3.291288 0.759376
H 1.956906 0.674913 0.969974
H -1.560739 2.057667 0.132857
H 1.131412 -2.050725 -1.069695
H -1.240871 -0.778947 1.876942
H 1.753606 -0.393913 -1.194413
H -0.257533 -0.717152 -2.896698
H 1.343081 -1.503551 1.460398
H -0.978183 -2.319574 0.979854
H -0.183673 2.254253 -0.845501