17
H8 C5 N2 O2
C -0.574155 0.194206 1.179912
C 1.740167 -1.009759 2.231596
N 0.652610 0.258126 -0.946582
O 1.775608 -0.140271 1.076179
C -0.577017 0.595188 -2.919452
C 0.643500 0.134533 0.408710
C -1.694706 0.262996 0.452513
O -1.688342 0.382326 -0.885085
N -0.521037 0.411877 -1.513804
H -0.589051 0.332869 2.240316
H -2.707380 0.208302 0.907516
H 1.448797 -0.379996 3.084124
H -0.083614 1.497201 -3.166439
H 1.020249 -1.872375 2.179889
H -0.034094 -0.185481 -3.429432
H -1.565693 0.665057 -3.232009
H 2.754175 -1.354807 2.332057