15
H7 C5 N3
C 1.033703 -1.279091 0.566285
C 0.524319 -0.346522 1.430460
N -0.662117 0.741353 -0.374086
C 0.623532 -1.194395 -0.772635
N -0.646355 -0.061467 -2.459540
C -0.265211 -0.213364 -1.219065
C -0.335941 0.692462 1.000197
N -0.910942 1.599749 1.873264
H -0.315384 1.777240 2.662816
H 1.662443 -2.128361 0.790498
H 1.034147 -1.962499 -1.568964
H -1.336831 2.351934 1.485960
H -0.928387 0.902031 -2.701630
H 0.734290 -0.361263 2.530585
H -0.211262 -0.517784 -3.244164