16
H7 C6 N3
C 1.221819 0.779985 -0.607266
C 0.534362 0.725815 1.735158
N 0.853615 1.191733 2.797339
C 0.142037 -1.321661 0.280858
C 0.192048 0.200174 0.348802
C -1.359658 -1.075454 0.191515
N 1.116369 2.584430 -2.114942
C 0.851425 1.478601 -1.751078
N -1.245062 0.290917 0.010282
H -1.913746 -1.562582 -0.602460
H 0.605685 -1.727009 -0.631353
H -1.998553 -1.440910 1.074231
H 0.134949 0.404487 -2.100277
H -1.767849 0.951782 0.650075
H 0.474929 -1.884727 1.172239
H 2.157627 0.404397 -0.453103