15
H6 C5 N4
N 0.352650 0.667710 1.191486
C -0.806230 1.071695 0.414279
N -1.311140 0.127952 -0.544656
C -0.421515 -0.255062 -1.419718
N -0.254670 -1.592530 2.013593
C 0.726705 1.203091 0.077025
C 0.156477 1.020375 -1.290735
C 0.550275 -0.717380 1.482529
N -0.124242 -1.335055 -2.142386
H -0.937264 -2.001929 -1.958508
H -1.498557 1.724864 0.949924
H 0.334064 1.684454 -2.121910
H 0.059712 -2.510044 1.952932
H 1.537847 1.888299 0.076285
H 1.635867 -0.976442 1.319862