16
H7 C5 N3 O1
C 0.226934 1.097520 1.374212
O 0.272585 1.961529 2.162526
C -1.434990 -0.803759 -1.122352
N -0.766492 0.355649 -0.595262
C 1.519192 -0.946711 0.936338
C -0.916301 0.489236 0.804592
C 0.724508 0.454982 -0.850061
N 1.346543 0.482147 0.576193
N 1.525261 -2.033945 1.258960
H -0.963351 -1.759846 -0.969310
H 1.124061 -0.374762 -1.327685
H 2.197976 1.019014 0.756725
H -1.482652 -0.629134 -2.271778
H -1.765482 0.132435 1.413773
H -2.521724 -0.854577 -0.749072
H 0.913892 1.410220 -1.397794