18
H9 C7 N1 O1
C -0.731529 1.098816 0.704632
C -0.734961 0.296127 -1.331237
C -1.186523 -0.273033 1.019045
C 0.076171 1.280387 -0.623829
N 0.818873 0.815298 0.627020
C 0.065430 -1.093311 0.433476
C 1.933534 -0.088927 0.042386
C -0.496200 -0.942685 -0.878585
O 1.299086 -1.197469 -0.661989
H -0.948417 -1.856212 -1.366982
H -1.472193 0.605889 -2.088751
H 2.609076 0.428834 -0.632216
H 2.536453 -0.555975 0.803858
H 0.400606 -1.686083 1.115429
H -1.230443 -0.497574 2.205306
H -2.264029 -0.505539 0.678024
H -1.125770 2.017821 1.074962
H 0.450834 2.153668 -1.120579