18
H10 C7 O1
C -1.588783 0.614888 0.958805
C -1.432352 -0.347262 -0.210525
C -0.390428 -0.109490 -1.307427
C 1.336023 -1.126079 0.706482
C 2.118266 -0.391861 -0.282958
O 0.231817 -1.422124 -1.520124
C -0.883362 1.641604 0.145785
C 0.512122 -0.581142 -0.356418
H 0.054972 2.066519 0.460723
H 1.392073 -2.186048 0.802829
H 2.564393 0.456552 0.066866
H -1.503238 2.282192 -0.461481
H -2.625491 0.775495 1.085891
H -2.121446 -1.079966 -0.507769
H 2.630347 -0.803027 -1.077741
H -0.339418 0.545397 -2.100955
H 1.139087 -0.660922 1.715565
H -1.094590 0.325234 1.882451