15
H7 C5 N1 O2
C -1.704523 0.453142 -0.731065
C 0.015889 -0.853284 -1.592819
C 0.387937 1.168147 0.118003
C -0.469061 0.278475 -0.720587
O 0.805241 -1.264380 2.789520
C 0.863869 0.468890 1.266690
N 0.249982 -0.687268 1.781527
O -2.820865 0.494831 -0.823864
H -0.190625 2.057100 0.471960
H -0.378273 -0.682038 -2.571549
H 1.242200 1.608925 -0.484929
H 1.804690 0.732590 1.788781
H -0.617240 -1.172154 1.586390
H 1.118773 -0.818201 -1.643010
H -0.307971 -1.784796 -1.235054