25
H16 C9
C -0.475407 1.398688 1.924889
C 0.885853 -1.768911 -2.643219
C -0.527677 -1.674247 -0.604104
C 0.183172 0.084036 -0.193206
C -0.194884 2.676838 1.156751
C 0.305699 -0.986626 -1.387912
C 1.206925 -0.430706 -2.379896
C -0.636533 -0.813348 2.071351
C -0.736795 0.119805 1.036127
H 0.782554 0.303043 -3.096425
H 0.781198 2.739625 0.646601
H -0.118647 3.521368 1.780635
H -1.453212 -2.075692 -1.078711
H 2.257410 -0.218069 -2.102359
H 1.231560 0.150291 0.131044
H -1.291756 -1.659201 2.238441
H -0.162943 -2.402479 0.069135
H -0.015319 1.005768 -0.794710
H -1.767831 -0.013535 0.613311
H -1.367237 1.524554 2.555903
H -1.063532 2.810015 0.449519
H 0.192156 -2.017580 -3.420673
H 0.273093 1.229623 2.585358
H 0.139909 -0.874508 2.777370
H 1.572226 -2.628740 -2.335198