11
H4 C4 N2 O1
O 0.903033 0.148069 -0.878031
C 0.131560 -1.030390 -0.198246
C -0.703038 1.190313 -0.226375
C 1.371314 -0.486753 0.209596
N -2.018248 1.432736 0.476442
C -0.953363 -0.206345 0.124243
N -2.076227 0.107455 0.701896
H 1.456896 -0.014867 1.100868
H 2.320794 -1.110374 -0.111947
H -0.015096 -2.091692 -0.466108
H -0.417610 2.061833 -0.732355