16
H9 C5 N1 O1
C -0.950633 0.593075 0.491277
C -0.340868 1.001917 -0.789022
C -0.073115 -1.194479 0.655071
C 0.074096 -0.961538 -0.882354
N 0.871442 1.321492 -1.106383
C 0.014648 0.176854 1.496345
O 1.177113 0.763622 1.716881
H -1.030938 -1.801740 0.847950
H 0.741230 -1.868963 1.087702
H 1.007101 -1.546175 -1.201429
H -0.486244 0.133658 2.574500
H -1.883212 0.951311 0.811960
H 1.612631 0.755928 -0.655711
H 1.038256 1.327527 -2.110745
H -1.150293 1.479708 -1.376288
H -0.621219 -1.132179 -1.559735