17
H8 C6 O3
O 0.269580 1.095636 1.825193
C 0.213205 2.059240 -0.514816
C -0.177094 -1.242537 -0.202487
O 0.731108 -1.072418 2.821266
C 0.546125 -0.372871 1.956856
C 0.438175 -0.381109 0.507703
C 0.830254 1.088315 0.502165
O -0.008508 -2.610220 -0.167042
C -1.300267 -0.942687 -0.893063
H 0.442455 1.697545 -1.489352
H -0.970420 1.990848 -0.417961
H 0.612946 -2.872090 -0.829870
H 0.541624 3.077775 -0.365452
H -2.027742 -1.024945 0.184211
H -0.146697 -0.611885 -1.946238
H 1.921699 1.325836 0.654701
H -1.916462 -1.204424 -1.625844