20
H11 C7 N1 O1
C -1.748317 0.803802 -0.004116
C -1.354461 -0.424508 0.014000
C -0.420893 0.363993 0.666411
C 2.592417 0.479411 -1.227941
C -0.330718 1.318811 1.712269
C 0.944423 -0.316006 0.322111
N 1.636278 0.618476 -0.163010
C -1.643081 -1.813985 -0.342400
O -1.216583 1.987697 2.256242
H 0.676983 1.472341 2.165744
H 3.534741 1.080571 -0.930678
H 2.128753 1.023421 -2.095251
H -2.756057 -2.008107 -0.213083
H -1.184997 -2.508833 0.280787
H -2.770003 0.808732 0.479984
H -1.694323 1.517685 -0.793911
H 2.821093 -0.492029 -1.434968
H -1.361851 -2.028612 -1.382703
H 0.806759 -1.068875 -0.506636
H 1.339874 -0.813976 1.197145