19
H10 C6 N2 O1
O 2.593962 -0.673512 1.593796
C 1.510303 -0.455772 1.306515
N -0.461657 0.357647 1.253328
C 0.843519 -1.074582 -1.609194
C -1.114715 0.209327 -0.056613
C -1.656099 1.712206 -0.559152
N 0.157684 -0.209669 -0.689724
C 0.180780 -0.830064 1.752549
C 0.918548 0.528092 0.377671
H 0.145845 -1.507531 -2.358378
H 1.480714 -1.878669 -1.187040
H -0.060270 -0.929659 2.819466
H -0.200695 -1.858696 1.368149
H 1.559065 -0.409907 -2.172212
H -2.736094 1.579014 -0.819802
H -1.957057 -0.371785 -0.051536
H 1.426789 1.453094 0.085333
H -1.070531 1.984530 -1.334007
H -1.560118 2.375929 0.280848