22
H13 C7 N1 O1
C -1.068412 -0.309295 -0.878219
C 1.258578 0.769050 -0.251772
C -1.915238 -2.059888 0.988850
C -0.280190 -0.250347 1.389485
N 0.623944 0.788518 1.087213
C 2.315215 1.808976 -0.717099
C 0.031398 0.716705 -1.185123
C -0.818437 -1.116495 0.354706
O -0.544220 -0.399976 2.588637
H -1.540241 -3.065336 1.039274
H -2.232905 -1.718995 2.015045
H -1.306099 -1.080583 -1.744590
H -2.782289 -2.011462 0.386443
H -2.019934 0.229423 -0.894387
H 0.364752 0.592680 -2.265946
H 1.817034 -0.153251 -0.213754
H 1.786869 2.766289 -0.663085
H 2.575149 1.669910 -1.713527
H -0.123317 -1.901382 0.068908
H -0.411764 1.722455 -1.140915
H 3.153389 1.752707 -0.047900
H 1.116712 1.250323 1.797792