16
H7 C6 N1 O2
C -1.428903 -1.632545 0.725222
C 0.127283 0.493477 0.144188
O -0.085862 -1.746900 0.461131
C 2.066713 1.663834 -0.577532
C 3.111139 1.705713 -1.168333
C 0.723243 -0.663466 0.279418
O -1.145274 0.660744 0.184925
C -2.071405 -0.529158 -0.157680
N 0.921661 1.654322 0.015998
H -1.904811 -2.549334 0.608093
H -3.025514 -0.326677 0.137842
H 0.361794 2.481743 0.218394
H 4.016462 1.800630 -1.699085
H -1.929443 -0.774243 -1.168741
H -1.478607 -1.366332 1.781461
H 1.741526 -0.871813 0.214722