19
H11 C6 N1 O1
C 2.066001 0.651489 -1.807979
C -1.999776 -0.342298 -0.252172
C -0.481782 -0.902139 1.587949
C -1.532702 0.111327 1.760240
C 1.344141 -0.099276 -0.738337
O 0.329911 0.854027 -0.239881
N -2.708648 -0.282349 1.057478
C -0.699165 0.065222 0.465762
H -0.731805 -1.904746 1.521354
H 2.551584 -0.041392 -2.441218
H 0.675341 1.409350 0.566379
H -1.652140 0.865921 2.623697
H -2.053309 -1.291981 -0.698521
H 2.768243 1.344718 -1.324677
H 1.352167 1.191229 -2.447832
H 0.329636 -0.696418 2.258489
H 1.959361 -0.404870 0.119477
H -2.390944 0.430067 -0.891114
H 0.873936 -0.957883 -1.119085