20
H11 C7 N1 O1
C -0.731435 -0.223844 1.631676
C -0.264420 0.586669 -0.124092
C -0.114385 -0.719897 0.316806
N -0.887886 -0.052789 -1.947511
C -0.096102 1.187557 -1.390890
C 1.198287 -1.635823 0.443515
C -0.375580 1.201146 1.324667
C -0.906758 -0.877124 -0.815869
O 1.408258 1.385865 -1.483191
H 1.733954 -1.571296 -0.529221
H 0.637658 1.558193 1.809327
H -0.761561 -0.298760 -2.837810
H -0.537821 2.025042 -1.833541
H -1.415691 -1.910350 -1.042472
H 0.898338 -2.682734 0.601331
H -0.308554 -0.618764 2.544597
H -1.820579 -0.337178 1.684689
H 1.829190 -1.265856 1.189077
H 1.527100 2.159653 -0.967228
H -1.012019 2.090294 1.426096