23
H14 C8 O1
C -0.885626 0.824010 -0.810647
C -0.141343 -1.421709 -0.140977
C 1.013177 -0.573593 -0.071024
O 2.039215 -1.128789 0.947692
C 1.084735 0.118284 1.207207
C 0.598827 0.537968 -1.173002
C -1.233812 -0.663170 -0.549677
C -2.632634 -1.149138 -0.763654
C 1.456221 1.691486 1.308016
H 2.339765 1.827260 0.716489
H 1.328563 1.414090 -1.169140
H 0.669084 2.360273 1.084479
H 2.410939 -1.111422 1.852507
H -3.155432 -1.089628 0.204797
H 0.413043 0.008575 2.009753
H 1.728746 1.978203 2.373351
H -1.150970 1.392424 0.137794
H 1.283320 -1.577519 -1.228121
H -3.207992 -0.494862 -1.438460
H 0.523542 0.194918 -2.212575
H -0.352664 -2.342829 0.450758
H -1.472127 1.341567 -1.552894
H -2.656595 -2.136332 -1.182648