22
H13 C7 N1 O1
C -0.438538 -0.218163 -1.243090
C -0.353848 1.573100 0.852568
C 0.146316 -0.629137 0.289323
C -0.890536 1.956956 -0.408124
C -0.524969 1.204111 -1.577857
O -0.600862 -1.000437 -2.290396
C 1.216751 -0.387292 1.549948
C 0.394832 -2.066537 -0.045387
N -0.837956 0.150054 1.007371
H 0.520234 1.532793 -2.001314
H -1.224472 1.321455 -2.356718
H 0.817494 -2.663326 0.724083
H -1.691493 -0.022163 1.127981
H 0.758927 1.951081 0.848473
H 2.281752 -0.290007 1.108647
H 1.136943 -1.241197 2.221963
H 1.336619 -2.136072 -0.709169
H -1.367010 2.891158 -0.617695
H -0.709870 2.127588 1.737011
H 1.071152 0.416549 2.273026
H -0.651938 -2.518044 -0.279010
H -0.389525 -1.952486 -2.211622