19
H10 C5 N2 O2
C -1.591676 -1.060996 0.035286
C -2.180569 -1.653044 -1.268764
N -0.747258 -0.087659 -0.257893
C 3.226140 0.653574 0.486650
N 1.829985 0.559378 0.043564
C -0.618584 0.848470 0.747568
O 1.076093 2.665922 0.369507
O 4.092871 0.708753 -0.497606
C 1.147507 1.511875 0.292082
H 3.409167 1.613986 1.083649
H -1.611883 -1.384501 -2.162300
H -2.121947 -2.767906 -1.231972
H 3.449594 -0.196505 1.139515
H -3.194273 -1.382721 -1.482971
H -2.572194 -0.729145 0.640655
H -1.199689 -1.818980 0.719875
H -0.657750 0.332608 -1.140499
H -1.374363 1.638050 0.714092
H -0.361180 0.548852 1.769580