21
H12 C8 O1
C 2.120578 -0.312865 0.130476
C -0.628214 2.077527 0.404465
C 0.990179 -0.483281 1.233409
C -0.890343 1.564559 -0.935851
O -1.661202 2.065582 1.342587
C 1.195818 -1.136632 -0.740985
C -0.135348 -0.672375 -0.025464
C -0.351914 0.687377 -0.304848
C -1.487891 -1.373757 -0.533637
H -2.497229 1.899026 0.894025
H -1.392568 -2.369356 -0.033489
H 0.809225 0.285580 1.944737
H 0.219802 2.739480 0.618587
H 1.054483 -1.460277 1.783801
H -2.381729 -0.883310 -0.219719
H -1.383148 1.860928 -1.814695
H 3.061345 -0.718629 0.397429
H 2.280475 0.762801 -0.201448
H -1.492131 -1.459300 -1.546754
H 1.246001 -0.871164 -1.800519
H 1.323815 -2.201959 -0.592064