18
H9 C6 N1 O2
C -0.664683 0.016719 1.465497
C -0.814334 -0.274279 -0.514912
C -0.001480 0.927047 -0.655954
C 1.380484 0.893125 -0.107285
N -0.185524 -1.459501 -1.220708
O 1.462691 -0.788197 1.657597
C -1.129417 -0.702105 -1.851609
C 1.222684 0.345228 1.333104
O -1.597125 -0.268234 0.534530
H -0.876789 0.913254 2.002582
H -0.454281 1.794499 -0.893885
H -1.986523 -1.462950 -1.921807
H -0.030623 -2.021953 -0.491597
H -1.070496 -0.108735 -2.674265
H 1.995268 0.140932 -0.657209
H -0.760819 -1.005599 2.060358
H 1.626485 1.165119 2.108098
H 1.884461 1.895637 -0.172509