18
H9 C7 N1 O1
C 0.588312 1.500174 1.129044
O -0.452034 1.085909 1.940324
C 0.811834 -1.790804 -1.147714
C -0.282983 -0.054201 -1.173741
C 0.649824 -1.541851 0.174624
C -1.597571 0.883266 1.055015
C -0.573720 -1.450604 -0.722774
C 0.386355 0.965727 -0.284188
N 1.236510 -0.314921 -0.649904
H 1.365347 -2.399844 -1.771108
H 0.704973 2.518355 1.213779
H 1.526583 0.982820 1.509287
H 0.812581 -1.840217 1.101230
H -0.529651 0.155500 -2.265346
H -1.439190 -2.142465 -0.965529
H -1.973940 1.736275 0.740769
H 0.691460 1.776887 -0.983177
H -1.924668 -0.070015 1.099398