23
H14 C7 O2
C 0.826975 -0.517387 1.598692
C 0.849371 0.313800 -1.674942
C -2.185463 -0.452620 0.553042
O -2.698140 0.643812 0.135166
C 0.508080 -0.227020 0.118210
C -0.899591 -0.822716 -0.147778
C 0.179053 1.172915 -0.501764
C 1.777649 -0.166325 -0.763836
O -0.494300 1.843077 0.550770
H 1.166872 -1.812028 0.391501
H 2.650159 0.429120 -0.341631
H 0.284722 0.269227 2.207334
H 0.319022 -0.527835 -2.334955
H -1.259350 0.781363 -1.254883
H -0.938479 -1.777367 -0.626547
H 2.347192 -1.139058 -1.137761
H 1.752817 -0.194177 1.920695
H -3.307494 -0.859054 0.055903
H 1.168990 1.046919 -2.507883
H -1.254589 2.130915 0.660072
H 1.026952 1.947556 -0.453589
H 0.292218 -1.510415 1.990646
H -2.112701 -0.572701 1.563558