16
H7 C6 N1 O2
O 2.811571 0.924799 -0.063724
N -0.898367 -1.272948 1.182678
C -0.651660 -0.284353 -1.130194
C -1.616069 0.463830 -0.412833
C -0.519134 -0.271909 0.271802
C 1.484733 1.148564 -0.414950
C 1.872908 -0.142802 -0.299428
C 0.845476 0.299152 0.727998
O -0.692259 -0.958434 -2.094809
H 1.108194 0.433307 1.756405
H 1.106133 1.840068 -1.009958
H -1.282496 -0.939830 2.126659
H -1.486459 1.570135 -0.367700
H 2.198421 -1.057988 -0.586235
H -2.623564 0.135129 -0.473657
H -1.657450 -1.886708 0.787965