15
H8 C5 O2
O -0.679091 1.294393 -0.148318
C -1.351262 -1.168974 0.321219
C -0.370520 -0.116504 -0.239501
C 0.445110 -0.279950 -1.512352
C 0.093760 0.771205 0.901360
C 1.449605 1.202031 1.039038
O 1.717680 2.354857 1.154287
H -1.090133 -1.639244 1.182972
H -1.450435 -1.953795 -0.476395
H 0.491741 -1.290389 -1.809469
H -0.521197 0.670218 1.868419
H -2.363060 -0.653523 0.443934
H -0.032825 0.315784 -2.337828
H 1.444495 0.064365 -1.408355
H 2.216142 0.429514 1.020974