21
H12 C6 O3
C 0.639354 1.411021 -1.734435
C 0.698841 0.908387 -0.370582
O -0.863946 -0.944387 0.931630
C -2.175977 -1.199255 0.757666
C -0.192877 0.215355 0.724569
C 1.368817 -0.378062 1.192667
C 1.629590 -0.351707 -0.342397
O 1.027812 -1.379336 -1.137055
O -1.519838 1.086989 0.680452
H 0.968448 1.805486 0.295415
H -1.767294 1.070067 1.461263
H -0.393766 1.464985 -2.113531
H -2.592801 -1.132858 -0.304342
H 2.693170 -0.282074 -0.647793
H 1.215372 0.811815 -2.472978
H 1.434625 -1.386498 1.641163
H -2.307695 -2.324871 0.973894
H 1.829670 0.352987 1.800411
H 0.019984 -1.476312 -0.880061
H 1.138379 2.391607 -1.832555
H -2.849851 -0.663316 1.376602