19
H10 C7 O2
O -2.401282 -0.848498 0.144765
C -1.885693 -0.359914 -1.022079
C 0.377034 0.193945 -0.060042
C 0.855358 0.647436 2.330909
C -0.638052 0.464799 -1.199471
O 0.555765 -1.124813 -0.665161
C 0.358682 -0.455245 -1.910614
C -0.100328 0.843575 1.257982
C 1.721685 -0.466921 1.841215
H -2.040933 -1.037987 -1.959140
H 2.720221 -0.418139 1.871666
H -0.913683 1.442230 1.323488
H 1.225626 -1.433816 1.944351
H -2.836493 0.096336 -0.153396
H 1.518482 0.586556 -0.237848
H 0.001227 -0.615407 -3.025342
H 1.392101 -0.206140 -2.159216
H 0.962370 1.222715 3.175601
H -0.872062 1.469300 -1.497681